/*--------------------------------*- C++ -*----------------------------------*\
  =========                 |
  \\      /  F ield         | OpenFOAM: The Open Source CFD Toolbox
   \\    /   O peration     | Website:  https://openfoam.org
    \\  /    A nd           | Version:  8
     \\/     M anipulation  |
\*---------------------------------------------------------------------------*/
/*   Windows 32 and 64 bit porting by blueCAPE: http://www.bluecape.com.pt   *\
|  Based on Windows porting (2.0.x v4) by Symscape: http://www.symscape.com   |
\*---------------------------------------------------------------------------*/
FoamFile
{
    version     2.0;
    format      ascii;
    class       polyBoundaryMesh;
    location    "constant/air/polyMesh";
    object      boundary;
}
// * * * * * * * * * * * * * * * * * * * * * * * * * * * * * * * * * * * * * //

13
(
    left
    {
        type            patch;
        nFaces          0;
        startFace       6928;
    }
    right
    {
        type            patch;
        nFaces          0;
        startFace       6928;
    }
    back
    {
        type            patch;
        nFaces          0;
        startFace       6928;
    }
    front
    {
        type            patch;
        nFaces          0;
        startFace       6928;
    }
    bottom
    {
        type            wall;
        inGroups        List<word> 1(wall);
        nFaces          69;
        startFace       6928;
    }
    top
    {
        type            patch;
        nFaces          0;
        startFace       6997;
    }
    tower
    {
        type            mappedWall;
        inGroups        List<word> 
2
(
wall
mappedPatch
)
;
        nFaces          0;
        startFace       6997;
        sampleMode      nearestPatchFace;
        sampleRegion    tower;
        samplePatch     buildings_to_air;
    }
    procBoundary0to1
    {
        type            processor;
        inGroups        List<word> 1(processor);
        nFaces          315;
        startFace       6997;
        matchTolerance  0.0001;
        myProcNo        0;
        neighbProcNo    1;
    }
    procBoundary0to5
    {
        type            processor;
        inGroups        List<word> 1(processor);
        nFaces          117;
        startFace       7312;
        matchTolerance  0.0001;
        myProcNo        0;
        neighbProcNo    5;
    }
    procBoundary0to6
    {
        type            processor;
        inGroups        List<word> 1(processor);
        nFaces          27;
        startFace       7429;
        matchTolerance  0.0001;
        myProcNo        0;
        neighbProcNo    6;
    }
    procBoundary0to7
    {
        type            processor;
        inGroups        List<word> 1(processor);
        nFaces          90;
        startFace       7456;
        matchTolerance  0.0001;
        myProcNo        0;
        neighbProcNo    7;
    }
    procBoundary0to8
    {
        type            processor;
        inGroups        List<word> 1(processor);
        nFaces          57;
        startFace       7546;
        matchTolerance  0.0001;
        myProcNo        0;
        neighbProcNo    8;
    }
    procBoundary0to9
    {
        type            processor;
        inGroups        List<word> 1(processor);
        nFaces          4;
        startFace       7603;
        matchTolerance  0.0001;
        myProcNo        0;
        neighbProcNo    9;
    }
)

// ************************************************************************* //
