/*--------------------------------*- C++ -*----------------------------------*\
  =========                 |
  \\      /  F ield         | OpenFOAM: The Open Source CFD Toolbox
   \\    /   O peration     | Website:  https://openfoam.org
    \\  /    A nd           | Version:  8
     \\/     M anipulation  |
\*---------------------------------------------------------------------------*/
/*   Windows 32 and 64 bit porting by blueCAPE: http://www.bluecape.com.pt   *\
|  Based on Windows porting (2.0.x v4) by Symscape: http://www.symscape.com   |
\*---------------------------------------------------------------------------*/
FoamFile
{
    version     2.0;
    format      ascii;
    class       scalarListList;
    location    "constant/air";
    object      divqrsw;
}
// * * * * * * * * * * * * * * * * * * * * * * * * * * * * * * * * * * * * * //


5
(

2290
(
0
0
0
0
0
0
0
0
0
0
0
0
0
-23.598209
0
0
0
0
0
0
0
0
-22.28423
0
0
0
0
-114.98317
0
-28.478147
0
0
0
0
0
0
0
0
0
0
0
0
-121.74353
-29.599839
0
0
0
0
0
0
0
0
0
0
0
0
0
0
0
0
0
0
0
0
0
0
0
0
0
0
0
0
0
0
0
0
0
0
0
0
0
0
0
0
0
0
0
0
0
0
0
0
0
0
0
0
0
0
0
0
0
0
0
0
0
0
0
0
0
0
0
0
0
0
0
0
0
0
0
0
0
0
0
0
0
0
0
0
0
0
0
0
0
0
0
0
0
0
0
0
0
0
0
0
0
0
0
0
0
0
0
0
0
0
0
0
0
0
0
0
0
0
0
0
0
0
0
0
0
0
0
0
0
0
0
0
0
0
0
0
0
0
0
0
0
0
0
0
0
0
0
0
0
0
0
0
0
0
0
0
0
0
0
0
0
0
0
0
0
0
0
0
0
0
0
0
0
0
0
0
0
-22.034043
0
0
0
0
0
0
0
0
0
0
0
0
0
0
0
-176.49095
0
0
0
0
-143.06806
0
0
0
-187.40867
-151.5603
0
0
0
-31.773113
0
0
-22.241323
0
-27.536317
0
0
0
0
0
0
0
0
0
0
0
0
0
0
0
0
0
0
0
0
0
-70.798042
0
0
0
0
0
0
0
0
0
0
0
0
0
0
0
0
0
0
0
0
-50.22803
-11.105637
-24.338962
0
0
0
0
0
0
0
0
0
0
0
0
0
0
0
0
0
0
0
0
0
0
0
0
0
0
0
0
0
0
0
-8.3188845
0
0
0
0
0
0
-62.916245
0
0
0
0
0
0
-51.385967
0
0
0
0
0
0
0
0
0
-170.97391
0
-190.38133
0
0
0
0
0
0
0
0
0
0
0
0
0
0
0
0
0
0
0
0
0
0
0
0
0
0
0
-81.750896
0
0
0
0
0
-128.2875
0
0
0
0
0
0
0
-154.1354
-67.250194
-94.756807
-121.27763
0
-89.318122
-104.49979
0
-59.256632
-55.667333
0
-99.240683
0
-88.94415
0
0
0
0
0
0
0
0
0
0
0
0
0
0
0
0
0
0
0
0
0
0
0
0
0
0
0
0
0
0
0
0
0
0
0
0
0
0
0
0
0
0
0
0
0
0
0
0
0
0
0
0
0
0
0
0
0
0
0
0
0
0
0
0
0
0
0
0
0
0
0
0
0
0
0
0
0
0
0
0
0
0
0
0
0
0
0
0
0
0
0
0
0
0
0
0
0
0
0
0
0
0
0
0
0
0
0
0
0
0
0
0
0
0
0
0
0
0
0
0
0
0
-174.28993
0
-128.66794
0
0
0
0
-24.746406
-24.683213
-27.484803
-18.711205
-23.558229
-18.740418
-29.718137
0
0
0
0
0
0
0
0
-22.356118
-16.595397
-18.024986
-12.895632
-15.212095
0
0
0
0
0
0
0
0
0
0
0
0
0
0
0
-64.144192
-99.371918
-95.364195
-104.48678
-82.676768
-76.486854
-90.4806
0
0
0
0
0
0
0
-22.362135
-29.914805
-35.061842
-23.330216
-29.32968
-17.900556
-36.093315
0
0
0
0
0
0
0
-173.35246
-142.52782
-157.52907
-158.58371
-95.416286
-118.56251
-87.34056
-129.7327
-112.74369
-126.35278
-100.56431
-125.43379
-101.6034
-109.45769
-136.53845
-41.758876
-31.71247
-32.727295
-36.773064
-37.814396
-35.758992
-40.152684
0
0
0
0
0
0
0
0
0
0
0
0
0
0
0
0
0
0
0
0
0
0
0
0
0
0
0
0
0
0
0
0
0
0
0
0
0
0
0
0
0
0
0
0
0
0
0
0
0
0
0
0
0
0
0
0
0
0
0
0
0
0
0
0
0
0
0
0
0
0
0
0
0
0
0
0
0
0
0
0
0
0
0
0
0
0
0
0
0
0
0
0
0
0
0
0
0
0
0
0
0
0
0
0
0
0
0
0
0
0
0
0
0
0
0
0
0
0
0
0
-74.945648
0
0
0
0
-84.599363
0
-9.1370712
0
0
0
-14.747393
0
-50.541909
-12.07552
-27.137553
-34.401384
-28.517848
-61.708055
-19.26156
-30.913715
-46.361207
-74.977154
-25.840269
0
0
0
-85.517087
0
0
0
0
0
-163.99274
-164.33456
-167.69908
-162.87919
-143.98991
-172.97273
-165.60888
0
0
0
-108.74857
0
0
-110.01871
0
0
0
-110.91972
0
0
-115.46766
0
0
0
0
0
0
0
-193.1741
-155.81502
-159.5684
-162.82689
-183.19292
-176.83229
-172.97004
0
-149.68021
-192.1131
-165.19351
-119.31571
-143.08204
-155.13949
0
-111.10801
0
-181.3987
0
0
-141.30867
0
0
0
0
-104.05628
0
0
-80.518479
0
-116.26133
-134.44505
0
-92.806488
0
-117.45964
-68.952695
-87.822751
-48.71991
-46.916938
-65.137454
-76.239319
-38.578062
-58.07059
-52.9172
-124.26667
-52.838098
-87.571205
-72.303458
-153.6402
0
-104.99217
0
0
0
0
0
0
0
0
0
0
0
0
0
0
0
-9.743063
0
0
0
-23.956287
-14.181649
0
0
-36.827345
-19.460236
0
0
0
0
0
-67.986824
0
0
0
0
0
0
-51.076209
0
0
0
-28.389407
-46.237168
0
0
-42.420179
-67.409602
0
0
0
-57.621083
-62.159274
0
0
0
0
0
0
-44.030546
0
0
0
0
0
0
0
0
0
0
0
0
0
0
0
0
0
0
0
0
-23.196338
-23.688793
-15.127593
-31.053709
-32.541204
-36.11127
-40.966209
-50.640635
-30.563532
-37.770913
-40.042704
-19.332898
-14.429067
-15.450661
0
-19.35069
0
-13.86032
-24.489458
0
-33.153407
-19.428083
-25.169022
-27.885688
0
0
0
0
-31.091592
-43.300177
0
-42.089445
0
0
0
0
0
0
0
0
0
0
0
0
0
0
0
0
0
0
0
0
0
0
-12.165663
0
0
0
0
0
0
0
0
0
0
0
0
0
0
0
0
0
0
0
0
-75.763143
0
0
0
-67.329187
0
-52.711308
-76.658499
-55.060933
-63.636135
-66.706017
-44.11499
-75.849056
0
0
0
0
-75.903325
0
-73.853293
0
0
0
-42.698296
0
-54.670661
0
0
0
0
-31.586246
-65.716378
0
-72.823184
0
0
0
0
0
0
-35.715244
-28.575768
-41.918685
-43.936004
-51.629177
-36.200918
-34.347621
-42.513711
0
0
0
0
-20.855693
0
0
0
0
-32.41434
0
-26.824882
0
0
0
0
0
0
-54.974753
0
-45.632931
0
0
0
-116.42391
0
-111.69606
-96.490919
-169.30638
-156.05268
-186.64987
-164.75937
-166.66876
-181.32402
-158.97042
0
-106.22614
0
-129.90901
-117.4787
-115.14599
-137.30337
-173.79269
-149.97887
-205.29538
-199.82384
-171.13311
-204.21887
-159.66621
0
-101.18337
0
-127.3061
-122.96303
-117.61092
-135.24644
0
0
0
-119.83294
-117.05122
-111.37491
-114.82181
0
0
0
0
0
0
0
0
0
0
0
0
0
0
0
0
0
0
0
0
0
0
-80.513749
0
-84.641856
0
0
0
0
0
0
0
0
-114.5611
-83.694669
-97.550554
-115.33469
0
-105.90092
0
0
0
0
0
-76.460384
0
0
0
0
-103.58073
0
-92.06567
0
-131.92866
-113.33081
-143.9212
-137.38686
-149.12199
-125.91522
-126.3556
-116.73761
-129.60974
-156.42903
-136.4747
-145.54589
-105.52233
-139.64488
-92.724529
-82.817388
-75.503916
-67.775847
-84.296964
-92.744671
-74.276545
-108.39634
-131.43765
-147.51254
-136.95042
-122.39817
-122.75973
-140.67386
-125.85626
-157.75861
-156.6102
-127.4174
-110.43386
-123.03822
-114.95828
-128.30033
0
-150.14775
-141.48632
-124.04424
-120.39872
-141.35499
-143.2566
-90.985055
-146.45869
-128.25196
-104.08082
-112.96279
-115.01035
-102.36543
-119.84002
-79.676255
-118.72668
-134.51825
-92.110987
-88.930327
0
0
-75.440428
-56.542078
-33.535964
-42.071691
-49.216807
-56.476388
-43.020683
-63.991643
-68.953785
-49.551196
-48.532681
-76.817183
-50.138523
-44.531306
-61.233563
-56.020847
-45.569379
-48.96143
-61.868303
0
0
-85.849378
-70.189003
-59.122617
-55.500666
-75.114219
-78.539664
-129.0053
-102.67394
-73.617184
-86.570101
-65.797075
-93.37334
0
-122.2904
-103.92255
-83.698426
-95.517291
-87.238481
-98.63513
-67.031865
-79.65641
-68.225431
-102.31227
-59.17614
-90.795479
-77.210203
0
0
0
0
0
0
0
0
0
0
-101.72863
0
0
0
0
0
0
0
0
0
0
0
0
0
0
0
0
0
0
0
0
0
0
0
0
0
0
0
0
0
0
0
0
0
0
0
0
0
0
0
0
0
0
0
0
0
0
0
0
0
0
0
-17.436614
-20.417438
-14.789363
-15.638616
-22.542517
-18.052645
-21.054365
0
0
-34.168918
-26.627126
-33.763896
-34.022302
-27.722987
-34.202797
-27.130805
0
0
0
0
0
0
0
0
0
0
0
0
0
0
0
0
-177.0545
-154.90185
-176.80989
-178.17361
-174.63587
-178.65374
-155.12855
0
0
0
-84.568182
0
0
-73.502305
-140.16282
-150.12626
-173.37047
-173.77312
-129.49032
-152.02738
-140.8459
-175.27238
-133.5667
-157.313
-143.36919
-101.68389
0
0
0
-85.126185
0
0
-74.134979
-179.62129
-175.34976
-178.53227
-156.78877
0
0
0
0
0
0
0
-121.41083
-64.38478
0
-103.77866
-76.804021
-67.187364
-124.66086
0
-49.78698
0
0
-34.475976
0
-53.026134
0
-37.259794
0
-56.012986
0
-55.654217
0
-104.46018
-80.345657
-73.412675
-126.85157
-70.42913
0
-126.063
0
-12.74674
0
0
-10.402086
-13.900461
0
0
-15.774021
0
0
-20.401548
0
-17.126317
0
-22.171636
-21.067758
0
0
-19.248852
0
0
0
0
0
0
0
0
0
-12.319617
-18.971574
0
-16.16787
0
0
-34.630671
-43.067514
-30.135619
-30.508968
-51.761602
-44.884932
-34.903555
-14.971725
-16.276229
-19.813833
-20.358644
-12.974516
-17.073772
-15.46529
-35.881226
-20.701632
-26.002577
-26.961788
-29.525135
-37.993393
-21.867701
-30.488255
-32.416091
-45.079023
-28.422687
-41.450569
-25.02048
-35.208504
-34.280927
-55.724195
-53.972589
-45.50086
-48.956137
-39.348547
-39.158121
-23.858301
-15.621567
-24.066714
-23.225495
-20.122104
-28.813554
-18.658121
-50.288228
-44.940693
0
-32.687859
-45.364521
-40.923211
0
-56.692924
-55.968931
-56.448337
-40.177585
-48.455281
-67.911011
-46.786029
-66.353026
-60.179869
-66.653615
-80.817247
-56.646066
-60.025628
-79.102178
-46.327899
-30.781082
-33.296591
0
-40.239238
0
-38.810381
0
0
-42.079211
0
0
0
0
0
-64.845104
0
-80.884322
0
0
0
0
0
0
0
0
0
0
0
0
0
0
0
0
0
-125.52461
-92.531994
-118.55984
-118.85238
-81.84965
-124.83032
-93.802193
0
0
0
0
0
0
0
-104.01209
-127.82154
-119.74062
-119.89505
-117.38772
-128.82138
-104.74417
-122.45201
-121.7574
-119.05132
-142.22117
-132.69167
-109.03059
-128.63964
0
0
0
0
0
0
0
-120.6639
-86.094229
-106.63443
-124.41823
-124.08439
-98.148995
-124.66949
0
0
0
0
0
0
0
-129.24835
-112.40511
-158.29721
-106.97512
-96.190765
-145.02386
-142.22215
-96.392476
-66.778895
-64.07184
-58.350506
-80.5632
-71.980823
-77.126734
-112.3015
-101.27751
-74.978841
-102.70337
-92.907066
-85.470393
-127.2503
-112.49297
-89.776578
-65.65006
-98.324897
-81.721338
-123.0856
-90.02922
-140.20629
-138.41575
-177.13377
-152.89059
-134.20934
-162.03031
-164.41849
0
-122.86213
-108.55746
-113.70533
0
-123.01938
-143.00672
0
0
0
0
0
0
0
0
0
0
0
-7.9405751
0
0
0
-8.8188443
0
0
0
0
0
-13.301012
0
-10.874598
-11.844557
-10.946372
-14.134757
-8.6106847
-16.600775
0
0
-12.10902
0
0
-17.405238
0
0
0
0
0
0
0
0
0
0
0
0
0
0
-15.971403
-23.122039
-21.004517
-22.081318
-19.050841
-16.810049
-21.478122
-11.87235
-12.049112
0
-17.527381
-15.252811
-8.4651117
-12.666093
-12.226937
0
0
-18.795481
0
0
-18.075241
0
-44.518638
-31.491943
-29.500588
-38.170852
-22.50298
-33.038605
0
0
-25.291939
0
-32.261419
-16.998552
0
0
0
0
0
0
0
0
0
0
0
0
0
0
0
0
-62.354859
-81.668407
-78.554491
-52.298485
-54.23064
-62.02592
-41.188366
-50.699512
-41.507357
-41.287472
-50.974382
-40.963322
-50.491741
-22.24536
0
-28.320635
-29.469469
0
-23.101608
0
-46.162787
0
-36.65427
-37.679035
0
-47.351036
0
-39.105958
0
-53.340486
0
-49.564397
0
-40.990735
-34.395188
-28.029596
-34.677454
-28.167805
-34.385459
-27.630297
-34.882416
-30.675623
0
0
-24.817581
-23.958571
0
-32.008406
-77.205736
0
-74.030362
0
-58.344756
0
-101.3627
-58.649977
-53.679304
-49.576996
-37.615795
-64.822013
-43.51473
-47.608336
-76.763589
-67.812792
-57.980994
-90.551053
-78.492937
-57.870347
-90.522129
0
0
-30.816346
0
0
-43.981181
0
0
0
0
0
0
0
0
0
0
0
0
0
0
0
0
0
0
0
0
0
0
0
0
0
0
0
0
0
0
0
0
0
0
0
0
0
0
0
0
0
0
0
0
0
0
0
0
0
0
0
0
0
0
0
0
0
0
0
0
0
0
0
0
0
0
0
0
0
0
0
0
0
0
0
0
0
0
0
0
0
0
0
0
0
0
0
0
0
0
0
0
0
0
0
0
0
0
0
0
0
0
0
0
0
0
0
0
0
0
0
0
0
0
0
0
0
0
0
0
0
0
0
0
0
0
0
0
0
0
0
0
0
0
0
0
0
0
0
0
0
0
0
0
0
0
0
0
0
0
0
0
0
0
0
0
0
0
0
0
0
0
0
0
0
0
0
0
0
0
0
0
0
0
0
0
0
0
0
0
0
0
0
0
0
0
0
0
0
0
0
0
0
0
0
0
0
0
0
0
0
0
0
0
0
0
0
0
0
0
0
0
0
0
0
0
0
0
0
0
0
0
0
0
0
0
0
0
0
0
0
0
0
0
0
0
0
0
0
0
0
0
0
0
0
0
0
0
0
0
0
0
0
0
0
0
0
0
0
0
0
0
0
0
0
0
0
0
0
0
0
0
0
0
0
0
0
0
0
0
0
0
0
0
0
0
0
0
0
0
0
0
0
0
0
0
0
0
0
0
0
0
0
0
0
0
0
0
0
0
0
0
0
0
0
0
0
0
0
0
0
0
0
0
0
0
0
0
0
0
0
0
0
0
0
0
0
0
0
0
0
0
0
0
0
0
0
0
0
0
0
0
0
0
0
0
0
0
0
0
0
0
0
0
0
0
0
0
0
0
0
0
0
0
0
0
0
0
0
0
0
0
0
0
0
0
0
0
0
0
0
0
0
0
0
0
0
0
0
0
0
0
0
0
0
0
0
0
0
0
0
0
0
0
0
0
0
0
0
0
0
0
0
0
0
0
0
0
0
0
0
0
0
0
0
0
0
0
0
0
0
)


2290
(
0
0
0
0
0
0
0
0
0
0
0
0
0
-17.537531
0
0
0
0
0
0
0
0
-15.439741
0
0
0
0
-89.021838
0
-19.521885
0
0
0
0
0
0
0
0
0
0
0
0
-90.3294
-21.311002
0
0
0
0
0
0
0
0
0
0
0
0
0
0
0
0
0
0
0
0
0
0
0
0
0
0
0
0
0
0
0
0
0
0
0
0
0
0
0
0
0
0
0
0
0
0
0
0
0
0
0
0
0
0
0
0
0
0
0
0
0
0
0
0
0
0
0
0
0
0
0
0
0
0
0
0
0
0
0
0
0
0
0
0
0
0
0
0
0
0
0
0
0
0
0
0
0
0
0
0
0
0
0
0
0
0
0
0
0
0
0
0
0
0
0
0
0
0
0
0
0
0
0
0
0
0
0
0
0
0
0
0
0
0
0
0
0
0
0
0
0
0
0
0
0
0
0
0
0
0
0
0
0
0
0
0
0
0
0
0
0
0
0
0
0
0
0
0
0
0
0
0
0
0
0
0
0
-26.577595
0
0
0
0
0
0
0
0
0
0
0
0
0
0
0
-136.09367
0
0
0
0
-100.13096
0
0
0
-156.23993
-154.78586
0
0
0
-31.311054
0
0
-17.175775
0
-20.858021
0
0
0
0
0
0
0
0
0
0
0
0
0
0
0
0
0
0
0
0
0
-49.094771
0
0
0
0
0
0
0
0
0
0
0
0
0
0
0
0
0
0
0
0
-34.124276
-10.022898
-17.648482
0
0
0
0
0
0
0
0
0
0
0
0
0
0
0
0
0
0
0
0
0
0
0
0
0
0
0
0
0
0
0
-6.5438627
0
0
0
0
0
0
-46.1264
0
0
0
0
0
0
-36.750641
0
0
0
0
0
0
0
0
0
-130.52261
0
-175.64643
0
0
0
0
0
0
0
0
0
0
0
0
0
0
0
0
0
0
0
0
0
0
0
0
0
0
0
-57.775683
0
0
0
0
0
-89.643938
0
0
0
0
0
0
0
-112.16585
-47.789819
-69.330001
-56.256749
0
-49.941682
-68.619321
0
-40.430577
-38.246371
0
-38.75895
0
-59.653867
0
0
0
0
0
0
0
0
0
0
0
0
0
0
0
0
0
0
0
0
0
0
0
0
0
0
0
0
0
0
0
0
0
0
0
0
0
0
0
0
0
0
0
0
0
0
0
0
0
0
0
0
0
0
0
0
0
0
0
0
0
0
0
0
0
0
0
0
0
0
0
0
0
0
0
0
0
0
0
0
0
0
0
0
0
0
0
0
0
0
0
0
0
0
0
0
0
0
0
0
0
0
0
0
0
0
0
0
0
0
0
0
0
0
0
0
0
0
0
0
0
0
-140.97163
0
-101.0519
0
0
0
0
-15.033663
-15.664666
-20.244326
-14.285374
-17.266835
-12.082069
-18.46056
0
0
0
0
0
0
0
0
-13.784182
-11.924417
-12.897729
-9.8378293
-10.065595
0
0
0
0
0
0
0
0
0
0
0
0
0
0
0
-48.368422
-77.837462
-70.478979
-85.262884
-65.334967
-56.774576
-66.891307
0
0
0
0
0
0
0
-16.711211
-18.004644
-24.051038
-16.898597
-21.14839
-12.746936
-22.037122
0
0
0
0
0
0
0
-127.12781
-105.95325
-123.09512
-109.11482
-76.327786
-97.311674
-67.054873
-107.76258
-74.149686
-90.257969
-72.688519
-90.060733
-73.655629
-71.414681
-91.853181
-25.719949
-20.035276
-23.224506
-26.184966
-27.719603
-21.810212
-24.960579
0
0
0
0
0
0
0
0
0
0
0
0
0
0
0
0
0
0
0
0
0
0
0
0
0
0
0
0
0
0
0
0
0
0
0
0
0
0
0
0
0
0
0
0
0
0
0
0
0
0
0
0
0
0
0
0
0
0
0
0
0
0
0
0
0
0
0
0
0
0
0
0
0
0
0
0
0
0
0
0
0
0
0
0
0
0
0
0
0
0
0
0
0
0
0
0
0
0
0
0
0
0
0
0
0
0
0
0
0
0
0
0
0
0
0
0
0
0
0
0
-56.220592
0
0
0
0
-80.84106
0
-13.03492
0
0
0
-36.713303
0
-40.381329
-15.290938
-22.884845
-44.886873
-48.508634
-73.451362
-44.254224
-59.649755
-86.761168
-97.504508
-66.769113
0
0
0
-87.425497
0
0
0
0
0
-143.17911
-136.86582
-134.43674
-122.34194
-130.5631
-145.61756
-122.24292
0
0
0
-91.590866
0
0
-92.632457
0
0
0
-98.25492
0
0
-97.273023
0
0
0
0
0
0
0
-138.62144
-111.02917
-101.25983
-121.07469
-142.76063
-118.58591
-111.54794
0
-132.53602
-168.28485
-138.07402
-108.44238
-127.51175
-140.20161
0
-99.34792
0
-165.84305
0
0
-121.28033
0
0
0
0
-90.557246
0
0
-62.543152
0
-91.041068
-139.0307
0
-95.930088
0
-93.859627
-53.689234
-70.091561
-43.801769
-38.299036
-51.156308
-92.605221
-58.089704
-74.975669
-61.697
-144.02608
-89.391212
-104.94914
-119.10732
-158.8926
0
-106.38893
0
0
0
0
0
0
0
0
0
0
0
0
0
0
0
-9.8178265
0
0
0
-56.16259
-38.789499
0
0
-85.332039
-57.345212
0
0
0
0
0
-52.569908
0
0
0
0
0
0
-37.733062
0
0
0
-61.381116
-50.51767
0
0
-87.927173
-118.83612
0
0
0
-42.031449
-41.690203
0
0
0
0
0
0
-31.470946
0
0
0
0
0
0
0
0
0
0
0
0
0
0
0
0
0
0
0
0
-12.629356
-12.158641
-9.4524702
-15.650709
-19.224542
-24.776672
-28.720118
-31.131648
-20.993594
-24.247064
-23.621026
-11.924101
-11.979602
-12.911213
0
-15.12808
0
-9.082057
-14.953023
0
-22.991562
-15.373799
-18.315315
-17.202006
0
0
0
0
-16.416327
-24.738221
0
-20.464797
0
0
0
0
0
0
0
0
0
0
0
0
0
0
0
0
0
0
0
0
0
0
-9.0790882
0
0
0
0
0
0
0
0
0
0
0
0
0
0
0
0
0
0
0
0
-61.110766
0
0
0
-57.206465
0
-39.357071
-57.228519
-42.675243
-40.322637
-54.056149
-31.616567
-52.629625
0
0
0
0
-52.740601
0
-48.62093
0
0
0
-36.870797
0
-48.834308
0
0
0
0
-22.168149
-34.425138
0
-42.265766
0
0
0
0
0
0
-16.587016
-20.38072
-30.007764
-33.835363
-32.876789
-26.840031
-26.454377
-26.647293
0
0
0
0
-16.234383
0
0
0
0
-28.087614
0
-20.429031
0
0
0
0
0
0
-27.007539
0
-20.234516
0
0
0
-118.64259
0
-110.77833
-102.68915
-126.41067
-112.66195
-148.72941
-123.27577
-131.24582
-136.88788
-109.77432
0
-86.741953
0
-106.42735
-86.749385
-96.786172
-96.471276
-140.20748
-124.61644
-166.6136
-171.96262
-133.68488
-161.60669
-131.43198
0
-86.580859
0
-109.34437
-96.79802
-103.97331
-97.319709
0
0
0
-118.10138
-125.06485
-122.28834
-115.03426
0
0
0
0
0
0
0
0
0
0
0
0
0
0
0
0
0
0
0
0
0
0
-64.60225
0
-77.126815
0
0
0
0
0
0
0
0
-81.681893
-52.814948
-66.957396
-87.761876
0
-62.721002
0
0
0
0
0
-49.795703
0
0
0
0
-79.524101
0
-61.23012
0
-81.034333
-78.356841
-86.581876
-101.87816
-95.273967
-89.542963
-72.530992
-76.315565
-89.95141
-112.74253
-96.469148
-98.085716
-74.593167
-91.956865
-59.550335
-58.340423
-46.855749
-48.398049
-58.282256
-58.225558
-48.553113
-69.78701
-90.812966
-85.115701
-76.049066
-77.979875
-69.148095
-88.608854
-67.318567
-61.982092
-74.73902
-61.849778
-44.672118
-58.952178
-48.192657
-97.387911
0
-89.673733
-79.85673
-90.848439
-84.136815
-91.075789
-60.955661
-54.64907
-74.6719
-66.718007
-69.665692
-76.227556
-55.161057
-63.670233
-82.441651
-53.759469
-70.132948
-83.216771
-63.026118
-54.926123
0
0
-22.356024
-24.408547
-16.531742
-19.658469
-21.466784
-33.552558
-29.344604
-38.044427
-46.228995
-34.662121
-28.087763
-44.837383
-31.636893
-31.936039
-37.511539
-39.817893
-32.928897
-30.774182
-38.500189
0
0
-26.638747
-30.727008
-30.32396
-25.034657
-38.389121
-25.084124
-44.758848
-31.154068
-31.028167
-35.377214
-27.649361
-38.474939
0
-47.06287
-35.616493
-37.445807
-56.261
-46.408285
-44.644611
-38.834118
-52.21457
-46.936176
-58.808813
-39.666475
-50.141092
-46.004907
0
0
0
0
0
0
0
0
0
0
-86.47566
0
0
0
0
0
0
0
0
0
0
0
0
0
0
0
0
0
0
0
0
0
0
0
0
0
0
0
0
0
0
0
0
0
0
0
0
0
0
0
0
0
0
0
0
0
0
0
0
0
0
0
-14.357466
-15.599978
-11.618502
-14.110974
-19.094418
-16.942227
-17.781831
0
0
-25.500486
-20.214603
-25.165548
-27.967634
-22.850858
-27.993044
-22.626033
0
0
0
0
0
0
0
0
0
0
0
0
0
0
0
0
-148.57292
-123.25501
-147.71021
-145.24813
-142.71697
-149.36371
-124.26934
0
0
0
-72.386347
0
0
-62.090563
-111.62817
-124.89477
-146.03328
-145.93093
-101.86753
-129.11057
-112.06563
-151.3935
-123.73935
-149.20712
-128.43116
-89.623988
0
0
0
-77.558516
0
0
-67.441839
-147.49634
-143.16904
-148.81407
-133.24894
0
0
0
0
0
0
0
-85.691698
-48.61247
0
-71.132173
-65.421394
-55.807236
-89.12736
0
-36.772349
0
0
-26.271583
0
-42.528506
0
-32.020001
0
-51.760557
0
-47.797056
0
-71.47276
-73.800163
-68.4935
-89.18621
-62.160683
0
-91.881588
0
-16.259256
0
0
-18.268166
-21.219221
0
0
-17.616849
0
0
-20.271295
0
-22.23627
0
-23.801394
-46.481888
0
0
-27.8908
0
0
0
0
0
0
0
0
0
-24.884233
-44.942763
0
-27.426873
0
0
-30.133708
-36.014944
-28.237707
-37.104652
-50.965329
-44.799217
-40.530414
-17.232914
-19.022295
-21.551373
-29.020814
-21.609452
-25.469015
-23.627663
-30.173483
-21.829276
-25.55538
-33.612991
-28.585256
-37.902326
-28.22275
-42.130312
-34.796982
-55.204051
-55.719353
-44.874619
-35.732102
-59.469417
-46.705036
-61.770129
-63.747546
-67.576981
-53.528535
-58.978681
-52.96838
-38.180555
-29.784855
-51.415579
-50.683433
-33.151912
-54.955211
-34.049934
-103.61898
-75.423623
0
-90.932239
-101.56118
-75.562125
0
-104.87378
-111.00507
-89.136047
-87.06689
-90.223196
-114.57353
-97.346416
-126.84621
-88.255349
-99.787109
-125.5472
-100.8576
-109.34767
-137.06376
-89.517508
-80.338128
-78.45013
0
-88.257822
0
-78.401516
0
0
-50.541724
0
0
0
0
0
-69.62807
0
-89.927372
0
0
0
0
0
0
0
0
0
0
0
0
0
0
0
0
0
-95.872598
-70.201633
-92.765692
-96.421334
-72.752495
-100.14194
-81.949
0
0
0
0
0
0
0
-81.058206
-105.14719
-93.491076
-99.329528
-95.304993
-109.63243
-89.800014
-111.40974
-115.84373
-124.77982
-145.16479
-126.46681
-106.80528
-123.3128
0
0
0
0
0
0
0
-103.22376
-84.489088
-111.33951
-97.449094
-100.15452
-97.011046
-108.55871
0
0
0
0
0
0
0
-131.63158
-130.33481
-139.74474
-133.30788
-122.08945
-125.25568
-143.67414
-122.23515
-109.15204
-90.729867
-99.129414
-113.62927
-102.66241
-120.86591
-125.60013
-116.8385
-100.74067
-123.22076
-126.64724
-109.45063
-124.09077
-134.35741
-124.62839
-113.13977
-145.04812
-116.04809
-144.27807
-134.89672
-113.09479
-143.54327
-146.31396
-161.35555
-134.86782
-125.53462
-147.33227
0
-127.39987
-94.46079
-104.30446
0
-116.73893
-116.55299
0
0
0
0
0
0
0
0
0
0
0
-13.515809
0
0
0
-21.429647
0
0
0
0
0
-12.046373
0
-8.443008
-12.545232
-16.153158
-17.337539
-10.480217
-12.378817
0
0
-10.697522
0
0
-15.404076
0
0
0
0
0
0
0
0
0
0
0
0
0
0
-26.738371
-33.655296
-52.60211
-52.10597
-32.423225
-43.556116
-31.440915
-21.901299
-26.103634
0
-46.786081
-29.436974
-18.626492
-33.74966
-18.821715
0
0
-42.095031
0
0
-26.361359
0
-107.66053
-83.655182
-75.958575
-95.758079
-64.996268
-93.433227
0
0
-72.050079
0
-71.746737
-51.359748
0
0
0
0
0
0
0
0
0
0
0
0
0
0
0
0
-44.674781
-59.762404
-64.178669
-46.224939
-46.106664
-54.039698
-31.203109
-36.835712
-30.612378
-33.578589
-40.188905
-33.252147
-40.615519
-17.334782
0
-21.998467
-27.834932
0
-21.397019
0
-34.970121
0
-27.751211
-35.779713
0
-43.745168
0
-45.609354
0
-83.489996
0
-57.541064
0
-68.338988
-35.736083
-34.730722
-64.596983
-59.085618
-34.453136
-34.600893
-63.925075
-38.414919
0
0
-50.473567
-32.086652
0
-59.371503
-90.868394
0
-118.64279
0
-94.17337
0
-103.6161
-113.9936
-109.23377
-95.120916
-83.841698
-113.86321
-107.89004
-93.1474
-106.30884
-119.23016
-110.40336
-126.98543
-119.35131
-105.19199
-113.17002
0
0
-66.111384
0
0
-78.066941
0
0
0
0
0
0
0
0
0
0
0
0
0
0
0
0
0
0
0
0
0
0
0
0
0
0
0
0
0
0
0
0
0
0
0
0
0
0
0
0
0
0
0
0
0
0
0
0
0
0
0
0
0
0
0
0
0
0
0
0
0
0
0
0
0
0
0
0
0
0
0
0
0
0
0
0
0
0
0
0
0
0
0
0
0
0
0
0
0
0
0
0
0
0
0
0
0
0
0
0
0
0
0
0
0
0
0
0
0
0
0
0
0
0
0
0
0
0
0
0
0
0
0
0
0
0
0
0
0
0
0
0
0
0
0
0
0
0
0
0
0
0
0
0
0
0
0
0
0
0
0
0
0
0
0
0
0
0
0
0
0
0
0
0
0
0
0
0
0
0
0
0
0
0
0
0
0
0
0
0
0
0
0
0
0
0
0
0
0
0
0
0
0
0
0
0
0
0
0
0
0
0
0
0
0
0
0
0
0
0
0
0
0
0
0
0
0
0
0
0
0
0
0
0
0
0
0
0
0
0
0
0
0
0
0
0
0
0
0
0
0
0
0
0
0
0
0
0
0
0
0
0
0
0
0
0
0
0
0
0
0
0
0
0
0
0
0
0
0
0
0
0
0
0
0
0
0
0
0
0
0
0
0
0
0
0
0
0
0
0
0
0
0
0
0
0
0
0
0
0
0
0
0
0
0
0
0
0
0
0
0
0
0
0
0
0
0
0
0
0
0
0
0
0
0
0
0
0
0
0
0
0
0
0
0
0
0
0
0
0
0
0
0
0
0
0
0
0
0
0
0
0
0
0
0
0
0
0
0
0
0
0
0
0
0
0
0
0
0
0
0
0
0
0
0
0
0
0
0
0
0
0
0
0
0
0
0
0
0
0
0
0
0
0
0
0
0
0
0
0
0
0
0
0
0
0
0
0
0
0
0
0
0
0
0
0
0
0
0
0
0
0
0
0
0
0
0
0
0
0
0
0
0
0
0
0
0
0
0
0
0
)


2290
(
0
0
0
0
0
0
0
0
0
0
0
0
0
-24.406575
0
0
0
0
0
0
0
0
-20.356578
0
0
0
0
-75.00924
0
-22.924108
0
0
0
0
0
0
0
0
0
0
0
0
-76.373886
-26.419159
0
0
0
0
0
0
0
0
0
0
0
0
0
0
0
0
0
0
0
0
0
0
0
0
0
0
0
0
0
0
0
0
0
0
0
0
0
0
0
0
0
0
0
0
0
0
0
0
0
0
0
0
0
0
0
0
0
0
0
0
0
0
0
0
0
0
0
0
0
0
0
0
0
0
0
0
0
0
0
0
0
0
0
0
0
0
0
0
0
0
0
0
0
0
0
0
0
0
0
0
0
0
0
0
0
0
0
0
0
0
0
0
0
0
0
0
0
0
0
0
0
0
0
0
0
0
0
0
0
0
0
0
0
0
0
0
0
0
0
0
0
0
0
0
0
0
0
0
0
0
0
0
0
0
0
0
0
0
0
0
0
0
0
0
0
0
0
0
0
0
0
0
0
0
0
0
0
-44.911382
0
0
0
0
0
0
0
0
0
0
0
0
0
0
0
-117.84104
0
0
0
0
-85.61048
0
0
0
-135.5646
-161.77818
0
0
0
-48.625504
0
0
-34.209305
0
-34.638906
0
0
0
0
0
0
0
0
0
0
0
0
0
0
0
0
0
0
0
0
0
-48.855364
0
0
0
0
0
0
0
0
0
0
0
0
0
0
0
0
0
0
0
0
-40.466981
-19.055927
-21.114401
0
0
0
0
0
0
0
0
0
0
0
0
0
0
0
0
0
0
0
0
0
0
0
0
0
0
0
0
0
0
0
-13.858343
0
0
0
0
0
0
-38.189358
0
0
0
0
0
0
-30.487493
0
0
0
0
0
0
0
0
0
-112.9503
0
-170.19131
0
0
0
0
0
0
0
0
0
0
0
0
0
0
0
0
0
0
0
0
0
0
0
0
0
0
0
-56.369704
0
0
0
0
0
-76.381496
0
0
0
0
0
0
0
-95.588938
-38.560199
-41.007461
-30.3753
0
-33.276985
-63.66434
0
-44.005788
-30.928119
0
-23.672681
0
-54.401784
0
0
0
0
0
0
0
0
0
0
0
0
0
0
0
0
0
0
0
0
0
0
0
0
0
0
0
0
0
0
0
0
0
0
0
0
0
0
0
0
0
0
0
0
0
0
0
0
0
0
0
0
0
0
0
0
0
0
0
0
0
0
0
0
0
0
0
0
0
0
0
0
0
0
0
0
0
0
0
0
0
0
0
0
0
0
0
0
0
0
0
0
0
0
0
0
0
0
0
0
0
0
0
0
0
0
0
0
0
0
0
0
0
0
0
0
0
0
0
0
0
0
-127.65398
0
-93.437065
0
0
0
0
-20.24393
-17.28754
-29.882513
-23.796435
-28.175158
-15.202499
-22.624282
0
0
0
0
0
0
0
0
-13.288182
-19.472446
-18.193538
-16.049371
-10.922273
0
0
0
0
0
0
0
0
0
0
0
0
0
0
0
-42.539127
-72.966624
-60.957224
-69.713998
-59.412504
-53.21687
-54.514244
0
0
0
0
0
0
0
-14.90735
-15.084289
-25.119692
-21.188883
-24.161277
-12.720845
-16.898155
0
0
0
0
0
0
0
-118.27259
-92.577454
-119.70697
-93.694204
-74.739309
-88.997891
-63.691284
-110.53957
-60.572121
-77.655979
-61.754995
-73.298169
-63.517725
-59.251482
-73.539293
-27.621157
-19.124295
-32.355782
-27.879064
-35.163456
-25.210683
-20.473697
0
0
0
0
0
0
0
0
0
0
0
0
0
0
0
0
0
0
0
0
0
0
0
0
0
0
0
0
0
0
0
0
0
0
0
0
0
0
0
0
0
0
0
0
0
0
0
0
0
0
0
0
0
0
0
0
0
0
0
0
0
0
0
0
0
0
0
0
0
0
0
0
0
0
0
0
0
0
0
0
0
0
0
0
0
0
0
0
0
0
0
0
0
0
0
0
0
0
0
0
0
0
0
0
0
0
0
0
0
0
0
0
0
0
0
0
0
0
0
0
-58.049956
0
0
0
0
-111.31327
0
-23.973152
0
0
0
-77.377082
0
-49.274809
-29.006401
-29.173471
-79.543541
-80.452178
-122.7871
-87.865765
-89.46156
-124.23922
-150.17808
-120.5764
0
0
0
-126.69612
0
0
0
0
0
-110.91572
-128.91341
-104.43611
-105.75114
-102.94826
-132.11007
-92.794267
0
0
0
-87.770741
0
0
-75.448776
0
0
0
-62.688713
0
0
-67.597255
0
0
0
0
0
0
0
-114.60842
-95.066855
-77.955089
-112.49986
-127.17299
-100.69942
-86.702968
0
-124.87491
-155.43135
-123.53514
-99.305125
-125.43552
-143.84982
0
-110.2804
0
-169.33844
0
0
-129.65392
0
0
0
0
-91.384286
0
0
-69.905551
0
-90.126583
-152.01228
0
-120.86254
0
-100.81166
-56.527832
-81.20163
-60.383396
-50.310753
-70.650262
-113.65697
-92.562084
-99.227043
-105.04656
-166.05018
-129.01118
-169.43269
-157.48606
-172.93281
0
-155.12396
0
0
0
0
0
0
0
0
0
0
0
0
0
0
0
-24.956413
0
0
0
-101.07975
-71.519488
0
0
-124.09938
-92.597734
0
0
0
0
0
-57.616437
0
0
0
0
0
0
-40.947397
0
0
0
-110.79428
-103.16126
0
0
-142.72706
-158.25816
0
0
0
-38.547273
-36.092549
0
0
0
0
0
0
-26.286585
0
0
0
0
0
0
0
0
0
0
0
0
0
0
0
0
0
0
0
0
-13.232404
-10.994539
-9.0016983
-15.594482
-22.94274
-34.678425
-34.478367
-29.904469
-31.388056
-24.72263
-25.893597
-17.773664
-21.956848
-22.571823
0
-25.724278
0
-12.921332
-19.984924
0
-27.178813
-23.407108
-27.553295
-20.296617
0
0
0
0
-14.853382
-19.602171
0
-17.312339
0
0
0
0
0
0
0
0
0
0
0
0
0
0
0
0
0
0
0
0
0
0
-17.394158
0
0
0
0
0
0
0
0
0
0
0
0
0
0
0
0
0
0
0
0
-60.570382
0
0
0
-51.079778
0
-35.560654
-48.521502
-38.768182
-34.802793
-47.517647
-28.491403
-44.478252
0
0
0
0
-56.253606
0
-41.354669
0
0
0
-39.877518
0
-43.719524
0
0
0
0
-21.711695
-26.730733
0
-33.542636
0
0
0
0
0
0
-12.300963
-18.101187
-27.358417
-31.329465
-26.742634
-26.845516
-21.794156
-21.00438
0
0
0
0
-23.601134
0
0
0
0
-32.952368
0
-26.910095
0
0
0
0
0
0
-21.66591
0
-16.587976
0
0
0
-101.95763
0
-97.492005
-108.48377
-116.78008
-96.845966
-134.21576
-108.03587
-126.33033
-120.74038
-93.864487
0
-54.051915
0
-90.932542
-74.641468
-83.546228
-78.362364
-128.72222
-122.73037
-158.76736
-174.46426
-127.86442
-152.20234
-132.87932
0
-53.509863
0
-88.936422
-85.975592
-91.650175
-77.797932
0
0
0
-107.297
-120.29507
-124.9254
-100.04087
0
0
0
0
0
0
0
0
0
0
0
0
0
0
0
0
0
0
0
0
0
0
-64.624647
0
-69.09372
0
0
0
0
0
0
0
0
-66.479528
-43.317472
-63.810779
-72.41972
0
-50.28955
0
0
0
0
0
-37.415788
0
0
0
0
-57.577579
0
-46.486712
0
-67.986725
-69.630244
-68.157131
-93.529837
-83.186157
-81.760658
-58.859622
-59.782998
-77.261517
-88.841899
-82.419621
-74.141071
-65.726517
-73.239772
-49.032496
-49.532799
-37.946429
-46.143336
-54.224623
-47.404385
-41.05227
-42.098698
-52.925244
-51.943102
-58.258437
-67.691058
-53.537343
-71.442484
-38.367112
-34.636753
-44.081039
-46.432908
-35.267526
-43.583918
-37.416321
-52.562206
0
-50.952278
-58.471624
-79.414837
-65.410811
-70.661075
-34.929622
-39.889468
-44.017729
-47.316214
-45.27859
-53.165345
-39.356275
-50.358594
-72.572722
-54.905522
-55.031997
-64.071327
-60.675335
-44.875125
0
0
-16.332503
-21.997845
-13.320318
-18.305433
-16.984048
-32.187269
-37.565371
-33.824598
-47.614702
-41.387754
-29.045844
-36.726608
-31.129761
-29.465946
-30.169354
-40.247447
-38.296941
-24.139287
-35.723968
0
0
-17.929973
-25.089061
-24.31946
-20.910393
-28.683538
-17.444859
-26.78258
-20.704434
-25.933806
-27.721458
-21.712267
-30.697886
0
-27.449468
-22.290337
-29.129728
-39.974555
-33.179274
-33.729323
-36.602669
-50.288867
-48.432695
-47.575454
-45.130801
-41.428853
-41.038285
0
0
0
0
0
0
0
0
0
0
-87.435225
0
0
0
0
0
0
0
0
0
0
0
0
0
0
0
0
0
0
0
0
0
0
0
0
0
0
0
0
0
0
0
0
0
0
0
0
0
0
0
0
0
0
0
0
0
0
0
0
0
0
0
-32.461273
-31.126716
-26.915277
-42.465741
-51.50818
-47.830627
-48.874586
0
0
-34.724403
-33.741898
-34.685725
-55.433867
-53.608084
-55.099508
-52.663211
0
0
0
0
0
0
0
0
0
0
0
0
0
0
0
0
-142.69327
-114.08124
-136.19546
-142.71235
-140.80123
-147.40309
-122.86483
0
0
0
-76.773201
0
0
-67.551585
-102.19046
-122.89365
-129.675
-141.35032
-113.81879
-140.0708
-118.67004
-164.97961
-140.00851
-161.63528
-146.68241
-95.670233
0
0
0
-89.67689
0
0
-78.923876
-156.7496
-161.98187
-156.08811
-151.4048
0
0
0
0
0
0
0
-68.228956
-46.580887
0
-55.605906
-67.90435
-54.991825
-72.068275
0
-34.877239
0
0
-35.138133
0
-47.491513
0
-52.887197
0
-74.529114
0
-67.042221
0
-64.795247
-84.836456
-102.24147
-90.909699
-77.337106
0
-81.18279
0
-27.789621
0
0
-34.965821
-39.819584
0
0
-30.653711
0
0
-35.813583
0
-46.768741
0
-50.105222
-92.5267
0
0
-67.684474
0
0
0
0
0
0
0
0
0
-51.583632
-93.125272
0
-60.67738
0
0
-44.164832
-43.037593
-40.591693
-52.643582
-60.105774
-53.607127
-55.828773
-33.088836
-31.781582
-34.73748
-47.861325
-40.863033
-44.207339
-45.85325
-35.481004
-33.381723
-35.975473
-52.337244
-44.685441
-51.518632
-50.002917
-74.014921
-66.373857
-97.616692
-98.716275
-75.230918
-71.422198
-102.27243
-75.626841
-83.130004
-117.5317
-110.24293
-81.241428
-106.95596
-78.184408
-63.73468
-57.003419
-98.945472
-91.847407
-62.13603
-97.570119
-61.227878
-118.1585
-107.12714
0
-130.90702
-131.134
-94.051328
0
-168.30751
-132.21934
-130.47929
-125.93206
-134.25921
-134.65374
-145.66515
-148.80349
-128.62486
-138.65777
-123.71643
-134.73184
-116.08238
-128.12746
-126.48517
-142.99432
-133.87426
0
-143.18781
0
-107.99303
0
0
-58.715613
0
0
0
0
0
-91.177521
0
-88.560603
0
0
0
0
0
0
0
0
0
0
0
0
0
0
0
0
0
-79.643738
-77.852117
-86.962722
-97.908211
-79.685811
-85.814758
-90.803885
0
0
0
0
0
0
0
-84.301089
-108.03102
-95.702508
-112.61874
-108.83625
-128.9697
-102.30168
-127.17311
-129.04648
-136.72743
-167.64177
-150.72517
-118.0678
-144.02006
0
0
0
0
0
0
0
-107.96407
-91.261891
-128.10807
-105.9846
-94.308182
-105.48139
-122.48991
0
0
0
0
0
0
0
-169.90597
-157.49395
-163.27179
-162.28646
-151.78352
-161.09761
-178.95758
-138.04975
-119.65746
-132.39066
-139.61396
-122.08526
-140.68839
-134.46723
-146.98609
-166.34804
-146.6158
-142.25307
-127.63994
-148.89602
-158.05721
-170.30241
-159.49389
-149.96144
-169.37617
-149.14922
-177.37805
-167.98377