FoamFile
{
  version    2.0;
  format    ascii;
  class    dictionary;
  object    changeDictionaryDict;
}
boundary
{
  left
  {
    type    mappedPatch;
    sampleMode    nearestPatchFace;
    sampleRegion    air;
    samplePatch    left;
    offsetMode    uniform;
    offset    (0 0 0);
  }
  right
  {
    type    mappedPatch;
    sampleMode    nearestPatchFace;
    sampleRegion    air;
    samplePatch    right;
    offsetMode    uniform;
    offset    (0 0 0);
  }
  back
  {
    type    mappedPatch;
    sampleMode    nearestPatchFace;
    sampleRegion    air;
    samplePatch    back;
    offsetMode    uniform;
    offset    (0 0 0);
  }
  front
  {
    type    mappedPatch;
    sampleMode    nearestPatchFace;
    sampleRegion    air;
    samplePatch    front;
    offsetMode    uniform;
    offset    (0 0 0);
  }
  bottom
  {
    type    mappedWall;
    sampleMode    nearestPatchFace;
    sampleRegion    air;
    samplePatch    bottom;
    offsetMode    uniform;
    offset    (0 0 0);
  }
  top
  {
    type    mappedPatch;
    sampleMode    nearestPatchFace;
    sampleRegion    air;
    samplePatch    top;
    offsetMode    uniform;
    offset    (0 0 0);
  }
  air_to_vegetation
  {
    type    mappedWall;
    sampleMode    nearestCell;
    sampleRegion    air;
    offsetMode    uniform;
    offset    (0 0 0);
  }
  tower
  {
    type    mappedWall;
    sampleMode    nearestPatchFace;
    sampleRegion    air;
    samplePatch    tower;
    offsetMode    uniform;
    offset    (0 0 0);
  }
}
