/*--------------------------------*- C++ -*----------------------------------*\
  =========                 |
  \\      /  F ield         | OpenFOAM: The Open Source CFD Toolbox
   \\    /   O peration     | Website:  https://openfoam.org
    \\  /    A nd           | Version:  8
     \\/     M anipulation  |
\*---------------------------------------------------------------------------*/
/*   Windows 32 and 64 bit porting by blueCAPE: http://www.bluecape.com.pt   *\
|  Based on Windows porting (2.0.x v4) by Symscape: http://www.symscape.com   |
\*---------------------------------------------------------------------------*/
FoamFile
{
    version     2.0;
    format      ascii;
    class       polyBoundaryMesh;
    location    "constant/tower/polyMesh";
    object      boundary;
}
// * * * * * * * * * * * * * * * * * * * * * * * * * * * * * * * * * * * * * //

6
(
    buildings_to_air
    {
        type            mappedWall;
        inGroups        List<word> 
2
(
wall
mappedPatch
)
;
        nFaces          1755;
        startFace       41475;
        sampleMode      nearestPatchFace;
        sampleRegion    air;
        samplePatch     tower;
    }
    interior
    {
        type            patch;
        nFaces          1755;
        startFace       43230;
    }
    procBoundary16to10
    {
        type            processor;
        inGroups        List<word> 1(processor);
        nFaces          240;
        startFace       44985;
        matchTolerance  0.0001;
        myProcNo        16;
        neighbProcNo    10;
    }
    procBoundary16to11
    {
        type            processor;
        inGroups        List<word> 1(processor);
        nFaces          290;
        startFace       45225;
        matchTolerance  0.0001;
        myProcNo        16;
        neighbProcNo    11;
    }
    procBoundary16to15
    {
        type            processor;
        inGroups        List<word> 1(processor);
        nFaces          350;
        startFace       45515;
        matchTolerance  0.0001;
        myProcNo        16;
        neighbProcNo    15;
    }
    procBoundary16to17
    {
        type            processor;
        inGroups        List<word> 1(processor);
        nFaces          410;
        startFace       45865;
        matchTolerance  0.0001;
        myProcNo        16;
        neighbProcNo    17;
    }
)

// ************************************************************************* //
