/*--------------------------------*- C++ -*----------------------------------*\
  =========                 |
  \\      /  F ield         | OpenFOAM: The Open Source CFD Toolbox
   \\    /   O peration     | Website:  https://openfoam.org
    \\  /    A nd           | Version:  8
     \\/     M anipulation  |
\*---------------------------------------------------------------------------*/
/*   Windows 32 and 64 bit porting by blueCAPE: http://www.bluecape.com.pt   *\
|  Based on Windows porting (2.0.x v4) by Symscape: http://www.symscape.com   |
\*---------------------------------------------------------------------------*/
FoamFile
{
    version     2.0;
    format      ascii;
    class       polyBoundaryMesh;
    location    "constant/air/polyMesh";
    object      boundary;
}
// * * * * * * * * * * * * * * * * * * * * * * * * * * * * * * * * * * * * * //

11
(
    left
    {
        type            patch;
        nFaces          0;
        startFace       15314;
    }
    right
    {
        type            patch;
        nFaces          0;
        startFace       15314;
    }
    back
    {
        type            patch;
        nFaces          0;
        startFace       15314;
    }
    front
    {
        type            patch;
        nFaces          0;
        startFace       15314;
    }
    bottom
    {
        type            wall;
        inGroups        List<word> 1(wall);
        nFaces          212;
        startFace       15314;
    }
    top
    {
        type            patch;
        nFaces          0;
        startFace       15526;
    }
    Building
    {
        type            mappedWall;
        inGroups        List<word> 
2
(
wall
mappedPatch
)
;
        nFaces          833;
        startFace       15526;
        sampleMode      nearestPatchFace;
        sampleRegion    Building;
        samplePatch     buildings_to_air;
    }
    procBoundary4to0
    {
        type            processor;
        inGroups        List<word> 1(processor);
        nFaces          11;
        startFace       16359;
        matchTolerance  0.0001;
        myProcNo        4;
        neighbProcNo    0;
    }
    procBoundary4to3
    {
        type            processor;
        inGroups        List<word> 1(processor);
        nFaces          230;
        startFace       16370;
        matchTolerance  0.0001;
        myProcNo        4;
        neighbProcNo    3;
    }
    procBoundary4to5
    {
        type            processor;
        inGroups        List<word> 1(processor);
        nFaces          313;
        startFace       16600;
        matchTolerance  0.0001;
        myProcNo        4;
        neighbProcNo    5;
    }
    procBoundary4to10
    {
        type            processor;
        inGroups        List<word> 1(processor);
        nFaces          62;
        startFace       16913;
        matchTolerance  0.0001;
        myProcNo        4;
        neighbProcNo    10;
    }
)

// ************************************************************************* //
