/*--------------------------------*- C++ -*----------------------------------*\
  =========                 |
  \\      /  F ield         | OpenFOAM: The Open Source CFD Toolbox
   \\    /   O peration     | Website:  https://openfoam.org
    \\  /    A nd           | Version:  8
     \\/     M anipulation  |
\*---------------------------------------------------------------------------*/
/*   Windows 32 and 64 bit porting by blueCAPE: http://www.bluecape.com.pt   *\
|  Based on Windows porting (2.0.x v4) by Symscape: http://www.symscape.com   |
\*---------------------------------------------------------------------------*/
FoamFile
{
    version     2.0;
    format      ascii;
    class       scalarListList;
    location    "constant/air";
    object      divqrsw;
}
// * * * * * * * * * * * * * * * * * * * * * * * * * * * * * * * * * * * * * //


5
(

2276
(
0
0
0
0
0
0
0
0
0
0
0
0
0
0
0
0
0
0
-96.844345
0
0
0
0
0
0
0
0
0
0
0
0
-108.4788
0
0
0
0
0
0
0
0
0
0
0
0
0
0
-128.88214
0
0
0
0
0
0
0
0
0
0
0
0
0
0
0
0
0
0
0
0
0
0
0
0
0
0
0
0
0
0
0
0
0
0
0
0
0
0
0
0
0
0
0
0
0
0
0
0
0
0
0
0
0
0
0
0
0
0
0
0
0
0
0
0
0
0
0
0
0
0
0
0
0
0
0
0
0
0
0
0
0
0
0
-115.41243
0
0
0
0
0
0
0
0
0
0
0
0
0
0
0
0
0
0
0
0
0
0
0
0
0
0
0
0
0
0
0
0
0
0
0
0
0
0
0
0
0
0
0
0
0
0
0
0
0
0
0
0
0
0
0
0
0
0
0
0
0
0
0
0
0
0
0
0
0
0
0
0
0
0
0
0
0
0
0
0
0
0
0
0
0
0
0
0
0
0
0
0
-103.97464
0
0
0
0
0
0
0
0
0
0
0
0
0
0
0
0
0
0
0
0
0
0
0
0
0
0
0
0
0
0
0
-126.51052
0
0
-107.61693
0
0
-129.24844
0
0
0
0
0
0
0
0
-174.33843
0
0
0
0
0
0
0
0
0
0
-45.220924
0
0
-59.384345
0
0
0
0
-154.0431
0
-54.466844
0
0
-84.718775
0
0
0
0
0
0
0
0
0
-179.64565
0
-101.32058
0
0
0
0
-54.122889
0
-112.67479
-69.504594
0
0
0
0
-137.87398
0
0
0
0
0
0
0
0
0
0
0
0
0
0
0
0
0
-109.52273
-166.93934
-65.639808
-170.81532
-148.18133
-95.667582
-135.60547
0
0
0
0
0
0
0
0
0
0
0
0
0
0
0
0
0
0
0
0
0
0
0
0
0
0
0
0
0
0
0
0
0
0
0
0
0
-173.52577
0
0
0
0
-105.74571
0
0
0
0
0
0
0
0
0
0
0
-218.11161
-147.95639
-147.2736
0
0
-148.21083
0
0
0
0
0
0
0
0
0
0
0
-177.84605
-174.93807
-141.16531
-134.76801
-199.16356
-161.23148
-186.20551
0
0
0
0
0
0
0
0
0
0
0
0
0
0
0
0
0
0
0
0
0
0
0
0
0
0
0
0
0
0
0
0
0
0
0
0
0
0
0
0
0
0
0
0
0
0
0
0
0
0
0
0
0
0
0
0
0
-176.88284
0
0
0
0
0
0
0
0
0
0
0
0
-185.49238
-116.39679
0
0
-168.91679
0
0
-177.7429
-140.72279
0
0
0
0
0
0
0
0
0
0
0
0
0
0
0
0
0
0
0
0
0
0
0
0
0
0
0
0
0
0
0
0
0
0
0
0
0
0
0
0
0
0
0
0
0
0
0
0
0
0
0
0
0
0
0
0
0
0
0
0
0
0
0
0
0
0
0
0
0
0
0
0
0
0
0
0
-32.683444
0
0
-33.80886
0
-71.251871
-103.99231
-83.00654
-79.08366
-67.268513
-88.15798
-86.966646
0
0
0
0
0
0
0
0
0
0
0
0
0
0
0
0
0
0
0
0
0
-46.567175
0
-35.404533
0
-43.174335
-39.571881
0
0
0
0
0
0
0
0
-147.64241
0
0
-146.09252
-134.45461
0
-172.35435
0
0
0
0
0
0
0
0
0
0
0
0
0
0
0
0
0
0
0
0
0
0
0
0
0
0
0
0
0
0
0
0
0
0
0
0
0
0
0
0
0
0
0
0
0
0
0
0
0
0
0
0
0
0
0
0
0
0
0
0
0
0
0
0
0
0
0
0
0
0
0
0
0
-127.43454
0
0
-130.83965
-117.50861
-119.01209
-98.037397
-139.64219
-114.92819
-101.67311
-136.1008
0
0
0
0
0
0
0
0
0
0
0
0
0
0
0
0
0
0
0
0
0
0
0
0
0
0
0
0
0
0
0
0
0
0
0
0
0
0
0
0
0
0
0
0
0
0
0
0
0
0
0
0
0
0
-43.928035
0
0
0
0
0
0
-54.976542
0
0
0
0
0
0
0
0
0
0
0
0
0
0
0
0
0
0
0
0
0
0
0
0
0
0
0
0
0
0
0
0
-175.56146
0
0
0
0
0
0
-183.33448
0
0
0
0
0
0
0
0
0
0
0
0
-53.603675
-93.975033
0
0
0
0
0
0
0
0
0
0
0
-65.116709
-177.97996
-133.87033
0
0
0
0
0
0
0
0
0
0
0
0
0
-202.28075
-120.76708
0
0
0
0
0
0
0
0
0
0
0
-179.67281
-199.84095
-158.61988
0
0
0
0
0
0
0
0
0
0
0
0
0
0
0
0
0
0
0
0
-152.9811
0
0
0
0
0
0
0
-128.82612
0
0
0
-38.7368
-32.332853
-52.617198
0
-37.833837
-43.73734
0
0
0
0
0
0
0
0
0
0
0
0
0
0
0
0
0
0
-62.707837
-46.139979
-49.887284
0
0
0
0
0
0
0
-80.216072
-130.25167
-107.76655
-131.62258
-96.545483
-109.63905
-96.031157
0
-68.891828
0
0
0
0
-71.755099
-58.948233
-65.591303
-40.672445
-63.415002
-53.498544
-47.385017
-74.663907
0
0
0
0
0
0
0
0
0
0
0
0
0
0
-70.958766
-70.26744
-108.88028
-76.957825
-86.188598
-59.542653
-91.35745
0
0
0
0
0
0
-114.99591
0
0
-156.28685
-172.38508
0
-160.7251
0
-111.96485
0
0
0
-132.58687
0
-138.09812
0
0
0
0
-156.10253
-148.73155
0
-83.833526
0
0
-83.903948
-128.59128
0
-107.23979
-61.443269
0
0
0
0
-61.586476
0
-57.398277
-44.628166
-61.68408
-62.44203
-51.911567
-50.88332
-68.565194
0
0
0
-50.163232
0
-43.596692
0
-79.930551
-121.93223
0
-91.440945
0
-75.223218
-98.821364
-77.349428
-47.032464
-49.920115
-64.064844
-73.441413
-58.289679
-79.230177
0
0
0
0
0
0
0
0
0
0
0
0
0
0
0
0
-123.97863
-133.79051
0
-120.46093
0
0
0
0
0
0
0
0
0
0
0
0
0
0
0
-111.16254
-120.99515
-134.05553
-164.23342
-129.20835
-125.57158
-163.58603
-134.73427
-147.14914
-143.67638
-170.16671
-126.92986
-149.8734
-155.50933
-130.45763
-143.59562
-170.00384
-165.39659
-128.33745
-167.99084
-143.13802
-121.38166
-157.59238
-104.78706
-159.26444
-115.96066
-113.04916
-161.98916
-103.94915
-114.00966
-119.87652
-89.762613
-105.17102
-127.24576
-96.052421
-134.71307
-145.26165
-164.02831
-160.77297
-150.61215
-167.56418
-158.42739
0
0
-166.99064
-164.23829
0
-167.92362
0
0
0
0
0
-145.70268
0
-134.25423
0
0
0
0
0
-112.73074
0
0
-139.62453
-103.45407
0
-138.67529
0
0
-107.55899
0
0
0
0
-113.58783
0
0
-113.24878
0
0
0
0
-139.31421
0
0
0
0
0
0
0
0
-111.40343
-111.49099
-138.54634
0
-153.16911
0
-181.21943
-196.85034
-232.47595
-216.16899
-176.37362
-215.80549
-215.85448
-140.67456
-124.024
-128.49085
-194.54675
-173.28147
-93.099421
-173.3025
-148.16601
0
-168.77079
-187.07381
0
-148.50443
-191.67374
0
0
-145.40684
-134.79846
0
0
-133.48105
0
0
0
0
0
0
0
0
0
0
0
0
0
0
0
0
0
0
0
0
0
-196.53621
-164.17401
-182.19953
-185.49538
-175.22537
-199.44563
-178.73416
-191.6466
-168.38272
-170.23512
-181.55107
-193.17476
-166.8139
-178.27093
-141.29751
-193.50041
-173.42426
-163.09878
-176.83445
-180.12754
-165.09263
-140.28565
-190.1726
-151.61484
-172.27191
-167.00809
-187.53189
-168.59982
-195.38339
-180.23599
-158.01414
-186.01821
-183.23944
-187.11295
-186.62493
-202.73841
-180.56159
-209.09993
-205.28279
-199.34553
-216.54539
-189.46989
0
0
0
0
0
0
0
0
0
0
-154.64047
0
0
0
0
-129.95652
0
0
0
0
0
0
0
0
0
0
0
0
0
-177.01884
-191.81672
-145.90952
0
-180.98905
-147.42645
0
0
-157.36402
0
-135.48574
-114.06277
0
0
0
0
0
0
0
0
-121.3306
-148.23116
-120.19237
-166.63255
-111.47142
-157.04957
-118.6756
0
-74.25166
0
0
0
-79.281949
0
0
0
0
0
0
0
0
-134.75259
-161.51284
-174.04993
-149.09021
-133.52335
-153.93722
-148.84911
-131.19235
-164.33123
-162.39581
0
-164.79925
-120.4969
-131.70564
0
0
0
0
0
0
0
0
0
0
0
0
0
0
0
0
0
0
0
0
0
0
0
0
0
0
0
0
0
0
0
0
0
0
0
0
0
0
0
0
0
0
0
0
0
0
0
0
0
0
0
0
0
0
0
0
0
-81.895624
-82.909616
-67.90792
-60.87509
-102.64803
-76.048899
-74.135961
0
0
0
0
0
0
0
0
0
0
0
-96.650643
-152.85383
-112.6726
-109.69291
-133.21246
-94.363474
-157.08849
0
0
0
0
-29.525352
-36.726465
0
0
0
0
-88.901238
-127.63113
-110.89636
-98.961431
-104.72296
-77.927398
-120.8483
0
-112.60055
-108.40399
0
0
0
0
-147.14223
-157.78851
-168.96382
-170.67164
-134.47611
-162.02394
-144.5006
0
-34.092227
-33.796606
0
0
-37.428641
0
-26.952357
0
0
0
0
0
0
0
0
0
0
0
0
0
0
-67.809977
-44.357982
-56.749318
-50.68869
-47.596443
-39.188859
-59.53571
0
0
0
0
0
0
0
0
-93.863077
0
0
0
0
-56.071429
0
0
0
0
0
0
-39.441131
-160.27351
-138.27129
0
0
-127.00767
0
-93.014188
0
0
0
0
0
0
0
0
0
0
0
0
0
0
-173.39239
-148.06592
-131.01401
-116.07373
-160.05128
-119.34657
-165.69291
0
0
0
0
0
0
0
0
-136.74741
0
0
0
0
-162.32761
0
0
0
0
0
0
-154.09363
0
0
0
0
0
0
0
-41.596685
-64.785712
-50.394214
-43.410071
-46.139966
-34.941418
-57.51053
0
-83.914485
-62.608289
-46.543404
0
0
-66.822845
0
0
0
0
0
0
0
0
0
0
0
0
0
0
0
0
0
0
0
0
0
0
0
0
0
0
0
0
-75.483731
-79.149198
-93.008932
-79.785853
-56.093624
-63.733318
-69.980596
-156.85104
-172.92813
-138.36312
-120.28274
-143.80215
-137.02335
-141.37982
-103.33879
-155.06213
-120.64392
-101.29379
-102.62188
-85.921474
-121.81217
-57.467139
0
0
0
-45.721218
0
0
-71.950842
-97.604174
0
0
-56.619785
0
-105.85019
-46.938303
-31.057443
0
0
-38.893251
-38.648001
0
-80.905582
0
0
0
0
0
-109.43532
0
0
0
0
0
0
0
-171.33301
-207.69909
-160.92224
-99.654925
-143.43707
-104.10926
-142.47885
0
-173.44565
-133.61775
-78.553322
0
0
-115.48626
0
0
0
0
0
0
0
0
0
0
0
0
0
0
0
0
0
0
0
0
0
0
0
0
0
0
0
0
-176.93359
-185.34795
-197.42347
-176.57665
-144.13814
-157.92419
-151.81225
-186.29186
-201.24968
-187.15154
-192.31395
-173.84753
-186.40887
-171.96654
-171.52975
-192.21192
-196.31354
-169.3362
-105.81003
-144.73301
-129.66314
-140.54207
0
0
0
-101.06293
0
0
-170.81217
-141.36733
0
0
-167.07357
-140.26546
0
-196.40718
-147.44399
0
0
-179.48088
-142.83354
0
-148.86974
0
0
0
-129.64018
0
0
0
0
0
0
0
0
0
0
0
0
0
0
0
0
0
0
0
0
0
0
0
-96.453631
-76.736019
-74.227888
-75.662383
-87.830733
-87.920436
-82.120972
-193.97877
-179.83028
-199.97334
-205.2209
-190.42946
-207.37989
-177.23094
-114.2682
-120.77552
-91.710052
-123.55801
-105.97906
-104.77387
-131.67308
-178.7331
-138.47043
-147.04734
-154.51637
-171.70065
-154.72793
-158.1378
0
0
0
0
0
0
0
0
0
0
0
0
0
0
0
0
0
0
0
0
0
0
0
0
0
0
0
0
0
0
0
0
0
0
0
0
0
0
0
0
0
0
0
0
0
0
0
0
0
0
0
0
0
0
0
0
0
0
0
0
0
0
0
0
0
0
0
0
0
0
0
0
0
0
0
0
0
0
0
0
0
0
0
0
0
0
0
0
0
0
0
0
0
0
0
0
0
0
0
0
0
0
0
0
0
0
0
0
0
0
0
0
0
0
0
0
0
0
0
0
0
0
0
0
0
0
0
0
0
0
0
0
0
0
0
0
0
0
0
0
0
0
0
0
0
0
0
0
0
0
0
0
0
0
0
0
0
0
0
0
0
0
0
0
0
0
0
0
0
0
0
0
0
0
0
0
0
0
0
0
0
0
0
0
0
0
0
0
0
0
0
0
0
0
0
0
0
0
0
0
0
0
0
0
0
0
0
0
0
0
0
0
0
0
0
0
0
0
0
0
0
0
0
0
0
0
0
0
0
0
0
0
0
0
0
0
0
0
0
0
0
0
0
0
0
0
0
0
0
0
0
0
0
0
0
0
0
0
0
0
0
0
0
0
0
0
0
0
0
0
0
0
0
0
0
0
0
0
0
0
0
0
0
0
0
0
0
0
0
0
0
0
0
0
0
0
0
0
0
0
0
0
0
0
0
0
0
0
0
0
0
0
0
0
0
0
0
0
0
0
0
0
0
0
0
0
0
0
0
0
0
0
0
0
0
0
0
0
0
0
0
0
0
0
0
0
0
0
0
0
0
0
0
0
0
0
0
0
0
0
0
0
0
0
0
0
0
0
0
0
0
0
0
0
0
0
0
0
0
0
0
0
0
0
0
0
0
0
0
0
0
0
0
0
0
0
0
0
0
0
0
0
0
0
0
0
0
0
0
0
0
0
0
0
0
0
0
0
0
0
0
0
0
0
0
0
0
0
0
0
0
0
0
0
0
0
0
0
0
0
0
0
0
0
0
0
0
0
0
0
0
0
0
0
0
0
0
0
0
)


2276
(
0
0
0
0
0
0
0
0
0
0
0
0
0
0
0
0
0
0
-90.282497
0
0
0
0
0
0
0
0
0
0
0
0
-105.07236
0
0
0
0
0
0
0
0
0
0
0
0
0
0
-117.44832
0
0
0
0
0
0
0
0
0
0
0
0
0
0
0
0
0
0
0
0
0
0
0
0
0
0
0
0
0
0
0
0
0
0
0
0
0
0
0
0
0
0
0
0
0
0
0
0
0
0
0
0
0
0
0
0
0
0
0
0
0
0
0
0
0
0
0
0
0
0
0
0
0
0
0
0
0
0
0
0
0
0
0
-100.84073
0
0
0
0
0
0
0
0
0
0
0
0
0
0
0
0
0
0
0
0
0
0
0
0
0
0
0
0
0
0
0
0
0
0
0
0
0
0
0
0
0
0
0
0
0
0
0
0
0
0
0
0
0
0
0
0
0
0
0
0
0
0
0
0
0
0
0
0
0
0
0
0
0
0
0
0
0
0
0
0
0
0
0
0
0
0
0
0
0
0
0
0
-73.245545
0
0
0
0
0
0
0
0
0
0
0
0
0
0
0
0
0
0
0
0
0
0
0
0
0
0
0
0
0
0
0
-88.774319
0
0
-86.514963
0
0
-102.74559
0
0
0
0
0
0
0
0
0
0
0
0
0
0
0
0
0
0
0
-56.240216
0
0
0
0
0
0
0
-164.61975
0
-65.806871
0
0
0
0
0
0
0
0
0
0
0
0
0
0
0
0
0
0
0
-60.970979
0
-114.03068
0
0
0
0
0
-126.52421
0
0
0
0
0
0
0
0
0
0
0
0
0
0
0
0
0
0
-171.81531
-70.72069
-127.08837
-121.04937
0
-114.43858
0
0
0
0
0
0
0
0
0
0
0
0
0
0
0
0
0
0
0
0
0
0
0
0
0
0
0
0
0
0
0
0
0
0
0
0
0
0
0
0
0
0
-90.850829
0
0
0
0
0
0
0
0
0
0
0
-181.83735
-94.44625
-134.75389
0
0
-113.05538
0
0
0
0
0
0
0
0
0
0
0
-184.66518
-131.89833
-116.14971
-97.859504
-171.14838
-132.8031
-170.02938
0
0
0
0
0
0
0
0
0
0
0
0
0
0
0
0
0
0
0
0
0
0
0
0
0
0
0
0
0
0
0
0
0
0
0
0
0
0
0
0
0
0
0
0
0
0
0
0
0
0
0
0
0
0
0
0
0
0
0
0
0
0
0
0
0
0
0
0
0
0
-174.93237
-86.804475
0
0
-174.87887
0
0
-155.07039
-123.59092
0
0
0
0
0
0
0
0
0
0
0
0
0
0
0
0
0
0
0
0
0
0
0
0
0
0
0
0
0
0
0
0
0
0
0
0
0
0
0
0
0
0
0
0
0
0
0
0
0
0
0
0
0
0
0
0
0
0
0
0
0
0
0
0
0
0
0
0
0
0
0
0
0
0
0
0
-35.127539
0
0
-39.965952
0
-85.10777
-121.60796
-83.843286
-84.253493
-70.158028
-110.13696
-98.694763
0
0
0
0
0
0
0
0
0
0
0
0
0
0
0
0
0
0
0
0
0
-59.767696
0
-41.488143
0
-47.198653
-49.811443
0
0
0
0
0
0
0
0
-122.06357
0
0
-144.40811
-139.23186
0
-136.614
0
0
0
0
0
0
0
0
0
0
0
0
0
0
0
0
0
0
0
0
0
0
0
0
0
0
0
0
0
0
0
0
0
0
0
0
0
0
0
0
0
0
0
0
0
0
0
0
0
0
0
0
0
0
0
0
0
0
0
0
0
0
0
0
0
0
0
0
0
0
0
0
0
-130.81161
0
0
-109.08743
-126.08643
-132.19999
-98.806923
-114.15931
-113.70547
-112.49236
-142.12856
0
0
0
0
0
0
0
0
0
0
0
0
0
0
0
0
0
0
0
0
0
0
0
0
0
0
0
0
0
0
0
0
0
0
0
0
0
0
0
0
0
0
0
0
0
0
0
0
0
0
0
0
0
0
-43.409953
0
0
0
0
0
0
-50.920579
0
0
0
0
0
0
0
0
0
0
0
0
0
0
0
0
0
0
0
0
0
0
0
0
0
0
0
0
0
0
0
0
-168.64507
0
0
0
0
0
0
-150.03179
0
0
0
0
0
0
0
0
0
0
0
0
-49.945196
-88.549262
0
0
0
0
0
0
0
0
0
0
0
-59.878901
-122.53653
-102.27616
0
0
0
0
0
0
0
0
0
0
0
0
0
-181.00922
-112.50014
0
0
0
0
0
0
0
0
0
0
0
-134.65633
-163.53207
-158.99064
0
0
0
0
0
0
0
0
0
0
0
0
0
0
0
0
0
0
0
0
0
0
0
0
0
0
0
0
0
0
0
0
-45.930925
-44.596839
-65.377965
0
-50.769469
-51.539751
0
0
0
0
0
0
0
0
0
0
0
0
0
0
0
0
0
0
-74.523822
-56.659464
0
0
0
0
0
0
0
0
-95.885774
-147.64997
-117.49691
-152.64558
-106.45718
-131.45758
-110.4499
0
-63.78352
0
0
0
0
-65.554461
-71.577314
-75.16989
-50.948189
-79.251524
-58.028058
-60.494059
-96.001314
0
0
0
0
0
0
0
0
0
0
0
0
0
0
0
-81.025065
0
-92.143489
0
-66.770447
-112.45508
0
0
0
0
0
0
0
0
0
0
0
0
0
0
0
0
0
0
0
0
0
0
0
0
0
0
0
0
0
0
0
0
-119.45537
0
-113.25093
-67.362034
0
0
0
0
-56.530416
0
-71.054864
-51.604867
-65.904071
-70.512195
-56.831512
-60.524142
-80.884491
0
0
0
0
0
0
0
-85.273288
-123.51462
0
-81.322315
0
-71.359446
-98.111479
0
0
0
0
-79.795558
0
-97.709677
0
0
0
0
0
0
0
0
0
0
0
0
0
0
0
0
-123.05543
-125.44344
0
-124.21454
0
0
0
0
0
0
0
0
0
0
0
0
0
0
0
0
0
-137.07843
-127.60565
0
-124.71472
-131.9059
-138.17188
-153.67297
-152.28434
-172.00919
-132.62352
-153.60391
-157.61832
-127.47137
-118.44717
-128.82015
-141.15452
-103.12073
-139.15459
-142.75587
-115.06222
-133.11463
-88.758222
-128.77388
-94.522091
-106.82008
-143.59458
0
-123.98302
0
-96.255009
-114.4661
0
-110.93278
-110.15407
-144.03741
-158.79041
-147.08265
-148.52829
-133.816
-160.51872
0
0
0
-153.3062
0
-153.41616
0
0
0
0
0
0
0
-115.59689
0
0
0
0
0
-97.759712
0
0
-130.78386
-85.602616
0
-125.72116
0
0
-87.786354
0
0
0
0
-124.68123
0
0
-97.522616
0
0
0
0
-111.38397
0
0
0
0
0
0
0
0
-89.803133
-79.87954
-124.91275
0
-124.22812
0
-155.97698
-166.46554
-180.36652
-177.13351
-160.85324
-172.0857
-166.9056
-123.37137
-70.223529
-89.004752
-147.87918
-138.48416
-67.187047
-135.87445
-127.51278
0
-151.59583
-162.96584
0
-146.20602
-157.24087
0
0
-107.47887
-100.98073
0
0
-99.527211
0
0
0
0
0
0
0
0
0
0
0
0
0
0
0
0
0
0
0
0
0
-179.40911
-175.3219
-177.29325
-171.37066
-177.21253
-172.47578
-176.07328
-172.03445
-134.44971
-145.90538
-152.41884
-158.87536
-158.31612
-160.96718
-125.58963
-175.69818
-152.11701
-151.25374
-172.54141
-154.28038
-158.76789
-120.66948
-184.39701
-113.90205
-144.45373
-145.04035
-153.65498
-164.74057
-184.68188
-162.98978
-126.39731
-167.96158
-167.03748
-164.54407
-173.16143
-192.98875
-176.56698
-184.51714
-188.8823
-179.58663
-187.85478
-194.77724
0
0
0
0
0
0
0
0
0
0
-140.42072
0
0
0
0
-115.03999
0
0
0
0
0
0
0
0
0
0
0
0
0
-156.21036
-161.76399
-132.37571
0
-137.76392
-126.45649
0
0
-129.01143
0
-103.98337
-96.826765
0
0
0
0
0
0
0
0
-138.69349
-161.45945
-129.20203
-158.8398
-124.80985
-165.09782
-129.90665
0
-71.711639
0
0
0
-70.237004
0
0
0
0
0
0
0
0
-135.32199
-134.4477
-158.23089
-133.11235
-128.9439
-146.9749
-130.84213
-131.17098
-142.31182
-152.23181
0
-154.27971
-113.03361
-117.35297
0
0
0
0
0
0
0
0
0
0
0
0
0
0
0
0
0
0
0
0
0
0
0
0
0
0
0
0
0
0
0
0
0
0
0
0
0
0
0
0
0
0
0
0
0
0
0
0
0
0
0
0
0
0
0
0
0
-68.773303
-63.495833
-56.309353
-39.9318
-65.377233
-51.905215
-51.716992
0
0
0
0
0
0
0
0
0
0
0
-82.133855
-108.49411
-98.09033
-80.020802
-80.050034
-63.944749
-101.23522
0
0
0
0
-31.561814
-34.012942
0
0
0
0
-77.229559
-98.875018
-84.291037
-70.078371
-72.094124
-59.858758
-83.434715
0
-100.96865
-95.234161
0
0
0
0
-117.71467
-121.66704
-135.99482
-121.16016
-88.76916
-112.51507
-100.04283
0
-35.379149
-32.738748
0
0
-31.092057
0
-25.213145
0
0
0
0
0
0
0
0
0
0
0
0
0
0
-56.406378
-38.651572
-46.023849
-33.105869
-36.879668
-26.778259
-42.729164
0
0
0
0
0
0
0
0
-58.557717
0
0
0
0
-37.873793
0
0
0
0
0
0
-28.152515
-146.66059
-131.55246
0
0
-112.32657
0
-84.956167
0
0
0
0
0
0
0
0
0
0
0
0
0
0
-128.99103
-127.99416
-115.3586
-97.261573
-126.02291
-104.06646
-119.82887
0
0
0
0
0
0
0
0
-83.269922
0
0
0
0
-102.98697
0
0
0
0
0
0
-113.2214
0
0
0
0
0
0
0
-40.183215
-51.599778
-42.064654
-28.057955
-36.880276
-29.24719
-37.214646
0
-62.793998
-51.219604
-31.03533
0
0
-45.084363
0
0
0
0
0
0
0
0
0
0
0
0
0
0
0
0
0
0
0
0
0
0
0
0
0
0
0
0
-68.699312
-61.535215
-72.383809
-56.493254
-44.491192
-49.772551
-46.802611
-108.40927
-121.22489
-87.374131
-85.26068
-118.79302
-107.64983
-106.17866
-71.081656
-112.18546
-75.661037
-68.015669
-78.825649
-56.079038
-92.229632
-52.16874
0
0
0
-40.391497
0
0
-52.192752
-62.6299
0
0
-41.38712
0
-71.050249
-38.761218
-24.43245
0
0
-30.063209
-30.928269
0
-67.725578
0
0
0
0
0
-83.236291
0
0
0
0
0
0
0
-146.16115
-172.24454
-137.1999
-80.20235
-121.64331
-86.403315
-119.01833
0
-151.44704
-119.13106
-64.655924
0
0
-100.97928
0
0
0
0
0
0
0
0
0
0
0
0
0
0
0
0
0
0
0
0
0
0
0
0
0
0
0
0
-131.14419
-148.36034
-152.3719
-144.09882
-133.7703
-128.76177
-139.71243
-142.18247
-170.33064
-153.12611
-142.92799
-138.43924
-136.50128
-139.95151
-157.93548
-171.91372
-163.24109
-141.85301
-102.2874
-127.14364
-123.26127
-124.22002
0
0
0
-96.344672
0
0
-123.72639
-89.900582
0
0
-114.63065
-95.546546
0
-152.60426
-130.98166
0
0
-134.48863
-131.97744
0
-114.21871
0
0
0
-98.412801
0
0
0
0
0
0
0
0
0
0
0
0
0
0
0
0
0
0
0
0
0
0
0
-105.37379
-82.906418
-76.189997
-82.630183
-88.45982
-98.507855
-92.763401
-183.87422
-149.63203
-179.20704
-188.07438
-170.88884
-193.34388
-163.81062
-118.84936
-130.17581
-94.028199
-116.8571
-100.17583
-112.68787
-138.03188
-170.72178
-146.09057
-135.53
-129.23991
-154.13948
-157.68489
-156.23307
0
0
0
0
0
0
0
0
0
0
0
0
0
0
0
0
0
0
0
0
0
0
0
0
0
0
0
0
0
0
0
0
0
0
0
0
0
0
0
0
0
0
0
0
0
0
0
0
0
0
0
0
0
0
0
0
0
0
0
0
0
0
0
0
0
0
0
0
0
0
0
0
0
0
0
0
0
0
0
0
0
0
0
0
0
0
0
0
0
0
0
0
0
0
0
0
0
0
0
0
0
0
0
0
0
0
0
0
0
0
0
0
0
0
0
0
0
0
0
0
0
0
0
0
0
0
0
0
0
0
0
0
0
0
0
0
0
0
0
0
0
0
0
0
0
0
0
0
0
0
0
0
0
0
0
0
0
0
0
0
0
0
0
0
0
0
0
0
0
0
0
0
0
0
0
0
0
0
0
0
0
0
0
0
0
0
0
0
0
0
0
0
0
0
0
0
0
0
0
0
0
0
0
0
0
0
0
0
0
0
0
0
0
0
0
0
0
0
0
0
0
0
0
0
0
0
0
0
0
0
0
0
0
0
0
0
0
0
0
0
0
0
0
0
0
0
0
0
0
0
0
0
0
0
0
0
0
0
0
0
0
0
0
0
0
0
0
0
0
0
0
0
0
0
0
0
0
0
0
0
0
0
0
0
0
0
0
0
0
0
0
0
0
0
0
0
0
0
0
0
0
0
0
0
0
0
0
0
0
0
0
0
0
0
0
0
0
0
0
0
0
0
0
0
0
0
0
0
0
0
0
0
0
0
0
0
0
0
0
0
0
0
0
0
0
0
0
0
0
0
0
0
0
0
0
0
0
0
0
0
0
0
0
0
0
0
0
0
0
0
0
0
0
0
0
0
0
0
0
0
0
0
0
0
0
0
0
0
0
0
0
0
0
0
0
0
0
0
0
0
0
0
0
0
0
0
0
0
0
0
0
0
0
0
0
0
0
0
0
0
0
0
0
0
0
0
0
0
0
0
0
0
0
0
0
0
0
0
0
0
0
0
0
0
0
0
0
0
0
0
0
0
0
0
0
0
0
0
0
)


2276
(
0
0
0
0
0
0
0
0
0
0
0
0
0
0
0
0
0
0
0
0
0
0
0
0
0
0
0
0
0
0
0
0
0
0
0
0
0
0
0
0
0
0
0
0
0
0
0
0
0
0
0
0
0
0
0
0
0
0
0
0
0
0
0
0
0
0
0
0
0
0
0
0
0
0
0
0
0
0
0
0
0
0
0
0
0
0
0
0
0
0
0
0
0
0
0
0
0
0
0
0
0
0
0
0
0
0
0
0
0
0
0
0
0
0
0
0
0
0
0
0
0
0
0
0
0
0
0
0
0
0
0
0
0
0
0
0
0
0
0
0
0
0
0
0
0
0
0
0
0
0
0
0
0
0
0
0
0
0
0
0
0
0
0
0
0
0
0
0
0
0
0
0
0
0
0
0
0
0
0
0
0
0
0
0
0
0
0
0
0
0
0
0
0
0
0
0
0
0
0
0
0
0
0
0
0
0
0
0
0
0
0
0
0
0
0
0
0
0
0
0
0
0
0
-96.268767
0
0
0
0
0
0
0
0
0
0
0
0
0
0
0
0
0
0
0
0
0
0
0
0
0
0
0
0
0
0
0
-109.07798
0
0
-102.50507
0
0
-114.73241
0
0
0
0
0
0
0
0
0
0
0
0
0
0
0
0
0
0
0
0
0
0
0
0
0
0
0
0
0
0
0
0
0
0
0
0
0
0
0
0
0
0
0
0
0
0
0
0
0
0
0
0
0
0
0
0
0
0
0
0
0
0
0
0
0
0
0
0
0
0
0
0
0
0
0
0
0
0
0
0
0
0
0
0
0
0
0
0
0
0
0
0
0
0
0
0
0
0
0
0
0
0
0
0
0
0
0
0
0
0
0
0
0
0
0
0
0
0
0
0
0
0
0
0
0
0
0
0
0
0
0
0
0
0
0
0
-180.8493
0
-133.25514
0
0
0
0
0
0
0
0
0
0
0
0
0
0
0
0
0
0
-181.52055
0
-165.92796
0
0
0
0
0
0
0
0
0
0
0
0
0
0
0
0
0
0
0
0
0
0
0
0
0
0
0
0
0
0
0
0
0
0
0
0
0
0
0
0
0
0
0
0
0
0
0
0
0
0
0
0
0
0
0
0
0
0
0
0
0
0
0
0
0
0
0
0
0
0
-173.98324
0
0
0
0
0
0
-169.40055
0
0
0
0
0
0
0
0
0
0
0
0
0
0
0
0
0
0
0
0
0
0
0
0
0
0
0
0
0
0
0
0
0
0
0
0
0
0
0
0
0
0
0
0
0
0
0
0
0
0
0
0
0
0
0
0
0
0
0
0
0
0
0
0
0
0
0
0
0
0
0
0
0
0
0
0
0
0
0
0
0
0
0
0
0
0
0
0
0
0
0
0
0
0
0
0
0
0
0
0
0
0
0
0
0
0
0
0
0
0
0
0
0
0
0
0
0
0
0
0
0
0
0
0
-121.48076
0
0
-149.28383
-148.20025
0
-132.40046
0
0
0
0
0
0
0
0
0
0
0
0
0
0
0
0
0
0
0
0
0
0
0
0
0
0
0
0
0
0
0
0
0
0
0
0
0
0
0
0
0
0
0
0
0
0
0
0
0
0
0
0
0
0
0
0
0
0
0
0
0
0
0
0
0
0
0
0
0
0
0
0
0
-130.14424
0
0
-118.74489
0
0
0
-152.27241
-113.16816
0
0
0
0
0
0
0
0
0
0
0
0
0
0
0
0
0
0
0
0
0
0
0
0
0
0
0
0
0
0
0
0
0
0
0
0
0
0
0
0
0
0
0
0
0
0
0
0
0
0
0
0
0
0
0
0
0
0
0
0
0
0
0
0
0
0
0
0
0
0
0
0
0
0
0
0
0
0
0
0
0
0
0
0
0
0
0
0
0
0
0
0
0
0
0
0
-169.2087
0
0
0
0
0
0
-154.64228
0
0
0
0
0
0
0
0
0
0
0
0
0
0
0
0
0
0
0
0
0
0
0
0
0
0
-134.18332
0
0
0
0
0
0
0
0
0
0
0
0
0
0
-180.81572
-118.68964
0
0
0
0
0
0
0
0
0
0
0
-147.19548
-163.63832
-144.87707
0
0
0
0
0
0
0
0
0
0
0
0
0
0
0
0
0
0
0
0
0
0
0
0
0
0
0
0
0
0
0
0
0
0
0
0
0
0
0
0
0
0
0
0
0
0
0
0
0
0
0
0
0
0
0
0
0
0
0
0
0
0
0
0
0
0
0
0
0
0
0
0
0
0
0
0
0
0
0
0
0
0
0
0
0
0
0
0
0
0
0
0
0
0
0
0
0
0
0
0
0
0
0
0
0
0
0
0
0
0
0
0
0
0
0
0
0
0
0
0
0
0
0
0
0
0
0
0
0
0
0
0
0
0
0
0
0
0
0
0
0
0
0
0
0
0
0
0
0
0
0
0
0
0
0
0
0
0
0
0
0
0
0
0
0
0
0
0
0
0
0
0
0
0
0
0
0
0
0
0
0
0
0
0
0
0
0
0
0
0
0
0
0
0
0
0
0
0
0
0
0
0
0
0
0
0
0
0
0
0
0
0
0
0
0
0
0
0
0
0
0
0
0
0
0
0
0
0
0
0
0
0
0
0
0
0
0
0
0
0
0
0
0
0
0
0
0
0
0
0
0
0
0
0
0
0
0
0
0
0
0
0
0
0
0
0
0
0
0
0
0
0
0
0
0
0
0
0
0
0
0
0
0
-91.318353
0
0
0
0
-109.40517
0
0
-91.286172
0
0
0
0
-106.32135
0
0
0
0
0
0
0
0
-99.870612
0
-108.9796
0
-135.17913
0
-165.50927
-167.10433
-173.65456
-179.61512
-165.09192
-174.16347
-167.60383
-119.77895
0
0
-143.54096
-144.80902
0
-128.3738
-137.08047
0
-144.82539
-167.69805
0
-141.0206
-167.67966
0
0
0
-122.39894
0
0
0
0
0
0
0
0
0
0
0
0
0
0
0
0
0
0
0
0
0
0
0
0
0
0
0
0
0
0
0
0
0
0
-169.71363
-170.95656
0
0
0
0
0
0
0
0
0
0
0
0
0
0
0
0
0
0
0
0
0
0
0
-202.38272
-181.66213
-157.40547
-196.36775
-191.90895
-181.69088
-175.39158
0
0
0
0
0
0
0
0
0
0
0
0
0
0
0
0
0
0
0
0
0
0
0
0
0
0
0
0
0
-153.68419
-163.31339
-114.45401
0
-148.44965
-101.04632
0
0
-132.77043
0
-116.16805
-78.093565
0
0
0
0
0
0
0
0
0
0
0
0
0
0
0
0
0
0
0
0
0
0
0
0
0
0
0
0
0
-121.58812
-159.38366
-187.39247
-108.682
-108.93915
-183.6041
-116.80628
0
0
0
0
0
0
0
0
0
0
0
0
0
0
0
0
0
0
0
0
0
0
0
0
0
0
0
0
0
0
0
0
0
0
0
0
0
0
0
0
0
0
0
0
0
0
0
0
0
0
0
0
0
0
0
0
0
0
0
0
0
0
0
0
-84.336053
0
0
-52.340327
-70.8601
-56.395031
-62.06823
0
0
0
0
0
0
0
0
0
0
0
-86.119042
-120.04145
-85.845262
-71.22645
-83.638707
-59.884808
-102.82321
0
0
0
0
0
0
0
0
0
0
0
-108.24217
0
-72.705712
-76.936649
-68.399768
-83.412051
0
-119.91154
-114.18788
0
0
0
0
-122.30727
-126.01079
-135.53656
-119.99413
-89.94599
-107.94054
-100.04869
0
0
0
0
0
0
0
0
0
0
0
0
0
0
0
0
0
0
0
0
0
0
0
0
0
-46.984745
0
0
-54.585784
0
0
0
0
0
0
0
0
-50.733256
0
0
0
0
-36.524649
0
0
0
0
0
0
-32.008617
-165.00323
-106.46119
0
0
-135.34141
0
-102.62696
0
0
0
0
0
0
0
0
0
0
0
0
0
0
-136.65948
-99.676734
-92.141928
-81.368729
-140.59865
-89.617193
-121.94915
0
0
0
0
0
0
0
0
-67.649504
0
0
0
0
-86.625324
0
0
0
0
0
0
-100.13258
0
0
0
0
0
0
0
0
0
0
0
0
0
0
0
0
0
0
0
0
0
0
0
0
0
0
0
0
0
0
0
0
0
0
0
0
0
0
0
0
0
0
0
0
0
0
0
0
0
0
0
0
-63.876276
0
-61.118826
0
-118.44365
0
0
-82.531638
-111.29103
-97.454858
-95.427723
0
0
0
-70.588029
0
0
-77.739837
-42.506435
0
0
0
-36.318655
0
0
-47.561405
-54.90724
0
0
-42.203712
0
-61.861204
-37.607163
-32.136284
0
0
-35.567229
-33.928495
0
-55.142966
0
0
0
0
0
-68.681762
0
0
0
0
0
0
0
-172.10746
-182.34941
-164.91333
-105.44184
-141.24805
-113.04174
-139.90185
0
-165.51517
-131.49492
-83.891631
0
0
-128.71856
0
0
0
0
0
0
0
0
0
0
0
0
0
0
0
0
0
0
0
0
0
0
0
0
0
0
0
0
-132.71079
-153.94752
-149.32365
-132.49211
-117.83618
-111.20088
-127.32718
-144.41506
-172.21358
-155.89783
-141.68482
-147.32086
-128.21049
-155.08166
-151.12652
-177.09278
-168.07715
-153.957
-114.22679
-158.87264
-125.46981
-121.50744
0
0
0
-106.99465
0
0
-99.346028
-68.553609
0
0
-86.879908
-77.929298
0
-111.36275
-95.859213
0
0
-101.20143
-103.65873
0
-109.02507
0
0
0
-85.709615
0
0
0
0
0
0
0
0
0
0
0
0
0
0
0
0
0
0
0
0
0
0
0
0
0
0
0
0
0
0
-198.76717
-167.0218
-185.84797
-195.10991
-177.76087
-184.83574
-190.40526
0
0
0
0
0
0
0
0
0
0
-155.04778
-161.75432
0
0
0
0
0
0
0
0
0
0
0
0
0
0
0
0
0
0
0
0
0
0
0
0
0
0
0
0
0
0
0
0
0
0
0
0
0
0
0
0
0
0
0
0
0
0
0
0
0
0
0
0
0
0
0
0
0
0
0
0
0
0
0
0
0
0
0
0
0
0
0
0
0
0
0
0
0
0
0
0
0
0
0
0
0
0
0
0
0
0
0
0
0
0
0
0
0
0
0
0
0
0
0
0
0
0
0
0
0
0
0
0
0
0
0
0
0
0
0
0
0
0
0
0
0
0
0
0
0
0
0
0
0
0
0
0
0
0
0
0
0
0
0
0
0
0
0
0
0
0
0
0
0
0
0
0
0
0
0
0
0
0
0
0
0
0
0
0
0
0
0
0
0
0
0
0
0
0
0
0
0
0
0
0
0
0
0
0
0
0
0
0
0
0
0
0
0
0
0
0
0
0
0
0
0
0
0
0
0
0
0
0
0
0
0
0
0
0
0
0
0
0
0
0
0
0
0
0
0
0
0
0
0
0
0
0
0
0
0
0
0
0
0
0
0
0
0
0
0
0
0
0
0
0
0
0
0
0
0
0
0
0
0
0
0
0
0
0
0
0
0
0
0
0
0
0
0
0
0
0
0
0
0
0
0
0
0
0
0
0
0
0
0
0
0
0
0
0
0
0
0
0
0
0
0
0
0
0
0
0
0
0
0
0
0
0
0
0
0
0
0
0
0
0
0
0
0
0
0
0
0
0
0
0
0
0
0
0
0
0
0
0
0
0
0
0
0
0
0
0
0
0
0
0
0
0
0
0
0
0
0
0
0
0
0
0
0
0
0
0
0
0
0
0
0
0
0
0
0
0
0
0
0
0
0
0
0
0
0
0
0
0
0
0
0
0
0
0
0
0
0
0
0
0
0
0
0
0
0
0
0
0
0
0
0
0
0
0
0
0
0
0
0
0
0
0
0
0
0
0
0
0
0
0
0
0
0
0
0
0
0
0
0
0
0
0
0
0
0
0
0
0
0
0
0
0
0
0
0
0
0
)


2276
(
0
0
0
0
0
0
0
0
0
0
0
0
0
0
0
0
0
0
0
0
0
0
0
0
0
0
0
0
0
0
0
0
0
0
0
0
0
0
0
0
0
0
0
0
0
0
0
0
0
0
0
0
0
0
0
0
0
0
0
0
0
0
0
0
0
0
0
0
0
0
0
0
0
0
0
0
0
0
0
0
0
0
0
0
0
0
0
0
0
0
0
0
0
0
0
0
0
0
0
0
0
0
0
0
0
0
0
0
0
0
0
0
0
0
0
0
0
0
0
0
0
0
0
0
0
0
0
0
0
0
0
0
0
0
0
0
0
0
0
0
0
0
0
0
0
0
0
0
0
0
0
0
0
0
0
0
0
0
0
0
0
0
0
0
0
0
0
0
0
0
0
0
0
0
0
0
0
0
0
0
0
0
0
0
0
0
0
0
0
0
0
0
0
0
0
0
0
0
0
0
0
0
0
0
0
0
0
0
0
0
0
0
0
0
0
0
0
0
0
0
0
0
0
0
0
0
0
0
0
0
0
0
0
0
0
0
0
0
0
0
0
0
0
0
0
0
0
0
0
0
0
0
0
0
0
0
0
0
0
0
0
0
0
0
0
0
0
0
0
0
0
0
0
0
0
0
0
0
0
0
0
0
0
0
0
0
0
0
0
0
0
0
0
0
0
0
0
0
0
0
0
0
0
0
0
0
0
0
0
0
0
0
0
0
0
0
0
0
0
0
0
0
0
0
0
0
0
0
0
0
0
0
0
0
0
0
0
0
0
0
0
0
0
0
0
0
0
0
0
0
0
0
0
0
0
0
0
0
0
0
0
0
0
0
0
0
0
0
0
0
0
0
0
0
0
0
0
0
0
0
0
0
0
0
0
0
0
0
0
0
0
0
0
0
0
0
0
0
0
0
0
0
0
0
0
0
0
0
0
0
0
0
0
0
0
0
0
0
0
0
0
0
0
0
0
0
0
0
0
0
0
0
0
0
0
0
0
0
0
0
0
0
0
0
0
0
0
0
0
0
0
0
0
0
0
0
0
0
0
0
0
0
0
0
0
0
0
0
0
0
0
0
0
0
0
0
0
0
0
0
0
0
0
0
0
0
0
0
0
0
0
0
0
0
0
0
0
0
0
0
0
0
0
0
0
0
0
0
0
0
0
0
0
0
0
0
0
0
0
0
0
0
0
0
0
0
0
0
0
0
0
0
0
0
0
0
0
0
0
0
0
0
0
0
0
0
0
0
0
0
0
0
0
0
0
0
0
0
0
0
0
0
0
0
0
0
0
0
0
0
0
0
0
0
0
0
0
0
0
0
0
0
0
0
0
0
0
0
0
0
0
0
0
0
0
0
0
0
0
0
0
0
0
0
0
0
0
0
0
0
0
0
0
0
0
0
0
0
0
0
0
0
0
0
0
0
0
-133.58392
-120.20117
0
0
0
0
0
0
0
0
0
0
0
0
0
0
0
0
0
0
0
0
0
0
0
0
0
0
0
0
0
0
0
0
0
0
0
0
0
0
0
0
0
0
0
0
0
0
0
0
0
0
0
0
0
0
0
0
0
0
0
0
0
0
0
0
0
0
0
0
0
0
0
0
0
0
0
-111.34855
0
0
0
0
0
0
0
0
0
0
0
0
0
0
0
0
0
0
0
0
0
0
0
0
0
0
0
0
0
0
0
0
0
0
0
0
0
0
0
0
0
0
0
0
0
0
0
0
0
0
0
0
0
0
0
0
0
0
0
0
0
0
0
0
0
0
0
0
0
0
0
0
0
0
0
0
0
0
0
0
0
0
0
0
0
0
0
0
0
0
0
0
0
0
0
0
0
0
0
0
0
0
0
0
0
0
0
0
0
0
0
0
0
0
0
0
0
0
0
0
0
0
0
0
0
0
0
0
0
0
0
0
0
0
0
0
0
0
0
0
0
0
0
0
0
0
0
0
0
0
0
0
0
0
0
0
0
0
0
0
0
0
0
0
0
0
0
0
0
0
0
0
0
0
0
0
0
0
0
0
0
0
0
0
0
0
0
0
0
0
0
0
0
0
0
0
0
0
0
0
0
0
0
0
0
0
0
0
0
0
0
0
0
0
0
0
0
0
0
0
0
0
0
0
0
0
0
0
0
0
0
0
0
0
0
0
0
0
0
0
0
0
0
0
0
0
0
0
0
0
0
0
0
0
0
0
0
0
0
0
0
0
0
0
0
0
0
0
0
0
0
0
0
0
0
0
0
0
0
0
0
0
0
0
0
0
0
0
0
0
0
0
0
0
0
0
0
0
0
0
0
0
0
0
0
0
0
0
0
0
0
0
0
0
0
0
0
0
0
0
0
0
0
0
0
0
0
0
0
0
0
0
0
0
0
0
0
0
0
0
0
0
0
0
0
0
0
0
0
0
0
0
0
0
0
0
0
0
0
0
0
0
0
0
0
0
0
0
0
0
0
0
0
0
0
0
0
0
0
0
0
0
0
0
0
0
0
0
0
0
0
0
0
0
0
0
0
0
0
0
0
0
0
0
0
0
0
0
0
0
0
0
0
0
0
0
0
0
0
0
0
0
0
0
0
0
0
0
0
0
0
0
0
0
0
0
0
0
0
0
0
0
0
0
0
0
0
0
0
0
0
0
0
0
0
0
0
-94.178013
0
0
0
0
0
0
0
0
0
0
0
0
0
0
0
0
0
0
0
0
0
0
0
0
0
0
0
0
0
0
0
0
0
0
0
0
0
0
0
0
0
0
0
0
0
0
0
0
0
0
0
0
0
0
0
0
0
0
0
0
0
0
0
0
0
0
0
0
0
0
0
0
0
0
0
0
0
0
0
0
0
0
0
0
0
0
0
0
0
0
0
0
0
0
0
0
0
0
0
0
0
0
0
0
0
0
0
0
0
0
0
0
0
0
0
0
0
0
0
0
0
0
0
0
0
0
0
0
0
0
0
0
0
0
0
0
0
0
0
0
0
0
0
0
0
0
0
0
0
0
0
0
0
0
0
0
0
0
0
0
0
0
0
0
0
0
0
0
0
0
0
0
0
0
0
0
0
0
0
0
0
0
0
0
0
0
0
0
0
0
0
0
0
0
0
0
0
0
0
0
0
0
0
0
0
0
0
0
0
0
0
0
0
0
0
0
0
0
0
0
0
0
0
0
0
0
0
0
0
0
0
0
0
0
0
0
0
0
0
0
0
0
0
0
0
0
0
0
0
0
0
0
0
0
0
0
0
0
0
0
0
0
0
0
0
0
0
0
0
0
0
0
0
0
0
0
0
0
0
0
0
0
0
0
0
0
0
0
0
0
0
0
0
0
0
0
0
-100.61886
-100.50564
0
0
0
0
0
0
0
0
0
0
0
0
0
0
0
0
0
0
0
0
0
0
0
0
0
0
0
0
0
0
0
0
0
0
0
0
0
0
0
0
0
0
0
0
0
0
0
0
0
0
0
0
0
0
0
0
0
0
0
0
0
-117.4466
0
0
0
-101.84438
0
-89.4776
0
0
0
0
0
0
0
0
0
0
0
0
0
0
0
0
0
0
0
0
0
0
0
0
0
0
0
0
0
0
0
0
0
0
0
0
0
0
0
0
0
0
0
0
0
0
0
0
0
0
0
0
0
0
0
0
0
0
0
0
0
0
0
0
0
0
0
0
0
0
0
0
0
0
0
0
0
0
0
0
0
0
0
0
0
0
0
0
0
0
0
0
0
0
0
0
0
0
0
0
0
0
0
0
0
0
0
0
0
0
0
0
0
0
0
0
0
0
0
0
0
0
0
0
0
0
0
0
0
0
0
0
0
0
0
0
0
0
0
0
0
0
0
0
0
0
0
-131.26593
0
-133.63281
-101.99485
-112.14781
-99.211012
-123.92482
0
0
-113.05256
-77.85415
0
0
-111.2127
0
0
0
0
0
0
0
0
0
0
0
0
0
0
0
0
0
0
0
0
0
0
0
0
0
0
0
0
0
0
0
0
0
0
0
0
0
0
0
0
0
0
0
0
0
0
0
0
0
0
0
0
0
-83.489401
0
0
0
0
0
0
0
0
0
0
-79.890143
0
0
0
-91.270795
0
0
0
0
0
0
0
0
0
0
0
0
0
0
0
0
0
0
0
0
0
0
0
0
0
0
0
0
0
0
0
0
0
0
0
0
0
0
0
0
0
0
0
0
0
0
0
0
0
0
0
0
0
0
0
0
0
0
0
0
0
0
0
0
0
0
0
0
0
0
0
0
0
0
0
0
0
0
0
0
0
0
0
0
0
0
0
0
0
0
0
0
0
0
0
0
0
0
0
0
0
0
0
0
0
0
0
0
0
0
0
0
0
0
0
0
0
0
0
0
0
0
0
0
0
0
0
0
0
0
0
0
0
0
0
0
0
0
0
0
0
0
0
0
0
0
0
0
0
0
0
0
0
0
0
0
0
0
0
0
0
0
0
0
0
0
0
0
0
0
0
0
0
0
0
0
0
0
0
0
0
0
0
0
0
0
0
0
0
0
0
0
0
0
0
0
0
0
0
0
0
0
0
0
0
0
0
0
0
0
0
0
0
0
0
0
0
0
0
0
0
0
0
0
0
0
0
0
0
0
0
0
0
0
0
0
0
0
0
0
0
0
0
0
0
0
0
0
0
0
0
0
0
0
0
0
0
0
0
0
0
0
0
0
0
0
0
0
0
0
0
0
0
0
0
0
0
0
0
0
0
0
0
0
0
0
0
0
0
0
0
0
0
0
0
0
0
0
0
0
0
0
0
0
0
0
0
0
0
0
0
0
0
0
0
0
0
0
0
0
0
0
0
0
0
0
0
0
0
0
0
0
0
0
0
0
0
0
0
0
0
0
0
0
0
0
0
0
0
0
0
0
0
0
0
0
0
0
0
0
0
0
0
0
0
0
0
0
0
0
0
0
0
0
0
0
0
0
0
0
0
0
0
0
0
0
0
0
0
0
0
0
0
0
0
0
0
0
0
0
0
0
0
0
0
0
0
0
0
0
0
0
0
0
0
0
0
0
0
0
0
0
0
0
0
0
0
0
0
0
0
0
0
0
0
0
0
0
0
0
0
0
0
0
0
0
0
0
0
0
0
0
0
0
0
0
0
0
0
0
0
0
0
0
0
0
0
0
0
0
0
0
0
0
0
0
0
0
0
0
0
0
0
0
0
0
0
0
0
0
0
0
0
0
0
0
0
0
0
0
0
0
0
0
0
0
0
0
0
0
0
0
0
0
0
0
)

2276{0}
)


// ************************************************************************* //
