/*--------------------------------*- C++ -*----------------------------------*\
  =========                 |
  \\      /  F ield         | OpenFOAM: The Open Source CFD Toolbox
   \\    /   O peration     | Website:  https://openfoam.org
    \\  /    A nd           | Version:  8
     \\/     M anipulation  |
\*---------------------------------------------------------------------------*/
/*   Windows 32 and 64 bit porting by blueCAPE: http://www.bluecape.com.pt   *\
|  Based on Windows porting (2.0.x v4) by Symscape: http://www.symscape.com   |
\*---------------------------------------------------------------------------*/
FoamFile
{
    version     2.0;
    format      ascii;
    class       polyBoundaryMesh;
    location    "constant/air/polyMesh";
    object      boundary;
}
// * * * * * * * * * * * * * * * * * * * * * * * * * * * * * * * * * * * * * //

16
(
    left
    {
        type            patch;
        nFaces          0;
        startFace       6941;
    }
    right
    {
        type            patch;
        nFaces          0;
        startFace       6941;
    }
    back
    {
        type            patch;
        nFaces          16;
        startFace       6941;
    }
    front
    {
        type            patch;
        nFaces          0;
        startFace       6957;
    }
    bottom
    {
        type            wall;
        inGroups        List<word> 1(wall);
        nFaces          96;
        startFace       6957;
    }
    top
    {
        type            patch;
        nFaces          31;
        startFace       7053;
    }
    tower
    {
        type            mappedWall;
        inGroups        List<word> 
2
(
wall
mappedPatch
)
;
        nFaces          0;
        startFace       7084;
        sampleMode      nearestPatchFace;
        sampleRegion    tower;
        samplePatch     buildings_to_air;
    }
    procBoundary8to0
    {
        type            processor;
        inGroups        List<word> 1(processor);
        nFaces          57;
        startFace       7084;
        matchTolerance  0.0001;
        myProcNo        8;
        neighbProcNo    0;
    }
    procBoundary8to1
    {
        type            processor;
        inGroups        List<word> 1(processor);
        nFaces          21;
        startFace       7141;
        matchTolerance  0.0001;
        myProcNo        8;
        neighbProcNo    1;
    }
    procBoundary8to3
    {
        type            processor;
        inGroups        List<word> 1(processor);
        nFaces          12;
        startFace       7162;
        matchTolerance  0.0001;
        myProcNo        8;
        neighbProcNo    3;
    }
    procBoundary8to4
    {
        type            processor;
        inGroups        List<word> 1(processor);
        nFaces          32;
        startFace       7174;
        matchTolerance  0.0001;
        myProcNo        8;
        neighbProcNo    4;
    }
    procBoundary8to5
    {
        type            processor;
        inGroups        List<word> 1(processor);
        nFaces          17;
        startFace       7206;
        matchTolerance  0.0001;
        myProcNo        8;
        neighbProcNo    5;
    }
    procBoundary8to6
    {
        type            processor;
        inGroups        List<word> 1(processor);
        nFaces          66;
        startFace       7223;
        matchTolerance  0.0001;
        myProcNo        8;
        neighbProcNo    6;
    }
    procBoundary8to7
    {
        type            processor;
        inGroups        List<word> 1(processor);
        nFaces          383;
        startFace       7289;
        matchTolerance  0.0001;
        myProcNo        8;
        neighbProcNo    7;
    }
    procBoundary8to9
    {
        type            processor;
        inGroups        List<word> 1(processor);
        nFaces          322;
        startFace       7672;
        matchTolerance  0.0001;
        myProcNo        8;
        neighbProcNo    9;
    }
    procBoundary8to15
    {
        type            processor;
        inGroups        List<word> 1(processor);
        nFaces          26;
        startFace       7994;
        matchTolerance  0.0001;
        myProcNo        8;
        neighbProcNo    15;
    }
)

// ************************************************************************* //
