/*--------------------------------*- C++ -*----------------------------------*\
  =========                 |
  \\      /  F ield         | OpenFOAM: The Open Source CFD Toolbox
   \\    /   O peration     | Website:  https://openfoam.org
    \\  /    A nd           | Version:  8
     \\/     M anipulation  |
\*---------------------------------------------------------------------------*/
/*   Windows 32 and 64 bit porting by blueCAPE: http://www.bluecape.com.pt   *\
|  Based on Windows porting (2.0.x v4) by Symscape: http://www.symscape.com   |
\*---------------------------------------------------------------------------*/
FoamFile
{
    version     2.0;
    format      ascii;
    class       polyBoundaryMesh;
    location    "constant/vegetation/polyMesh";
    object      boundary;
}
// * * * * * * * * * * * * * * * * * * * * * * * * * * * * * * * * * * * * * //

13
(
    left
    {
        type            mappedPatch;
        inGroups        List<word> 1(mappedPatch);
        nFaces          0;
        startFace       6632;
        sampleMode      nearestPatchFace;
        sampleRegion    air;
        samplePatch     left;
    }
    right
    {
        type            mappedPatch;
        inGroups        List<word> 1(mappedPatch);
        nFaces          41;
        startFace       6632;
        sampleMode      nearestPatchFace;
        sampleRegion    air;
        samplePatch     right;
    }
    back
    {
        type            mappedPatch;
        inGroups        List<word> 1(mappedPatch);
        nFaces          16;
        startFace       6673;
        sampleMode      nearestPatchFace;
        sampleRegion    air;
        samplePatch     back;
    }
    front
    {
        type            mappedPatch;
        inGroups        List<word> 1(mappedPatch);
        nFaces          0;
        startFace       6689;
        sampleMode      nearestPatchFace;
        sampleRegion    air;
        samplePatch     front;
    }
    bottom
    {
        type            mappedWall;
        inGroups        List<word> 
2
(
wall
mappedPatch
)
;
        nFaces          129;
        startFace       6689;
        sampleMode      nearestPatchFace;
        sampleRegion    air;
        samplePatch     bottom;
    }
    top
    {
        type            mappedPatch;
        inGroups        List<word> 1(mappedPatch);
        nFaces          38;
        startFace       6818;
        sampleMode      nearestPatchFace;
        sampleRegion    air;
        samplePatch     top;
    }
    tower
    {
        type            mappedWall;
        inGroups        List<word> 
2
(
wall
mappedPatch
)
;
        nFaces          327;
        startFace       6856;
        sampleMode      nearestPatchFace;
        sampleRegion    air;
        samplePatch     tower;
    }
    air_to_vegetation
    {
        type            mappedWall;
        inGroups        List<word> 
2
(
wall
mappedPatch
)
;
        nFaces          0;
        startFace       7183;
        sampleMode      nearestCell;
        sampleRegion    air;
        offsetMode      uniform;
        offset          (0 0 0);
    }
    procBoundary1to0
    {
        type            processor;
        inGroups        List<word> 1(processor);
        nFaces          143;
        startFace       7183;
        matchTolerance  0.0001;
        myProcNo        1;
        neighbProcNo    0;
    }
    procBoundary1to2
    {
        type            processor;
        inGroups        List<word> 1(processor);
        nFaces          41;
        startFace       7326;
        matchTolerance  0.0001;
        myProcNo        1;
        neighbProcNo    2;
    }
    procBoundary1to4
    {
        type            processor;
        inGroups        List<word> 1(processor);
        nFaces          133;
        startFace       7367;
        matchTolerance  0.0001;
        myProcNo        1;
        neighbProcNo    4;
    }
    procBoundary1to7
    {
        type            processor;
        inGroups        List<word> 1(processor);
        nFaces          13;
        startFace       7500;
        matchTolerance  0.0001;
        myProcNo        1;
        neighbProcNo    7;
    }
    procBoundary1to9
    {
        type            processor;
        inGroups        List<word> 1(processor);
        nFaces          63;
        startFace       7513;
        matchTolerance  0.0001;
        myProcNo        1;
        neighbProcNo    9;
    }
)

// ************************************************************************* //
