/*--------------------------------*- C++ -*----------------------------------*\
  =========                 |
  \\      /  F ield         | OpenFOAM: The Open Source CFD Toolbox
   \\    /   O peration     | Website:  https://openfoam.org
    \\  /    A nd           | Version:  8
     \\/     M anipulation  |
\*---------------------------------------------------------------------------*/
/*   Windows 32 and 64 bit porting by blueCAPE: http://www.bluecape.com.pt   *\
|  Based on Windows porting (2.0.x v4) by Symscape: http://www.symscape.com   |
\*---------------------------------------------------------------------------*/
FoamFile
{
    version     2.0;
    format      ascii;
    class       scalarListList;
    location    "constant/vegetation";
    object      F;
}
// * * * * * * * * * * * * * * * * * * * * * * * * * * * * * * * * * * * * * //


972
(

1056
(
0.059615359
0.072983408
0.0058103666
0.034162535
0.006568629
0.0059157452
0.0048084881
0.0038943879
0.0091770987
0.0028527275
0.00092071408
0.00060669454
0.00090755103
0.00081044323
0.0063113711
0.013385275
0.019197615
0.020475421
0.015427834
0.0073597681
3.2762063e-05
2.3493883e-06
2.2672919e-06
1.408006e-06
2.1071305e-06
3.4577646e-07
0.00025717552
4.3790764e-06
2.3382519e-06
2.1742091e-06
1.4111104e-06
2.2061697e-06
1.0432938e-06
0.00023747317
0.00023497401
0.00023383884
0.00023054786
0.00022504582
0.00019720659
0.00019804124
0.0002179308
0.00022349262
0.0002120514
0.00020692328
0.00074244508
0.0025510185
0.0025282628
0.0022741796
0.0023483411
0.0019881928
0.0018670966
0.0025376152
0.002376593
0.0019919576
0.0025075316
0.0022998326
0.00022873334
0.001340377
2.343426e-06
0.002559878
2.3167702e-06
0.0024915045
0.0021905124
1.698415e-06
0.0024123147
1.9628891e-06
0.0021112807
2.378336e-06
0.00033112603
0.0016842195
6.4903717e-07
0.002555161
2.3135253e-06
0.0024408319
2.0108256e-06
0.0020970568
1.3825059e-06
0.0024654996
2.2681091e-06
0.0022114632
1.6477671e-06
0.00022410904
0.00023482891
0.00023151136
0.0002333428
0.00021847616
0.00020423742
0.00021124846
0.00021153503
0.00022802215
0.00023905688
0.00021219536
0.0027244593
0.0028336739
0.002211903
0.0030930977
0.0024278178
0.0016433447
0.0025207603
0.0033530063
0.0028707711
0.0033705538
0.0038654861
0.0016321207
0.0018088499
0.0030843432
0.0036739287
0.0036741282
0.0042455749
0.0020387486
0.0036141491
0.0029877957
0.0004013521
0.00039036144
0.00031108416
0.00065791329
0.00062723164
0.00065689767
0.00068040754
0.0007074258
0.00071085339
0.00055419774
0.00051446075
0.00032811467
0.00032941075
0.00032153417
0.0003150289
0.00028606264
0.0002754645
0.00023871207
0.00022556999
0.00018948295
0.00017788706
0.00014686873
0.0025395704
0.0031744443
0.0029802158
0.0003063721
0.0028538013
0.0033018612
0.0033146029
0.0026532453
0.0028314018
0.00023508282
0.00049208797
0.0031043837
0.0019550062
0.0020132945
0.0023892813
0.000442751
0.0023117782
0.0030615518
0.0027631211
0.0039005935
0.0032606764
0.0038347432
0.0031056865
0.00064020016
0.00063363801
0.00068851801
0.003881172
0.0032705482
0.0037501184
0.0028814473
0.0035968747
0.0033876132
0.0024050269
0.00013225865
0.0030279589
0.00053418036
0.0003334785
0.0026617328
0.0040659422
0.0030369277
0.003605151
0.0035802839
0.003554913
0.0032312582
0.0032218124
0.00021521856
0.00048597319
0.00041690489
0.00061152395
0.00065741176
0.00069059675
0.00034503725
0.00033801965
0.00027048662
0.00029183344
0.00015458762
0.00017659306
0.00023167205
0.00021594144
0.0003898358
0.00039545493
0.00039906759
0.00040632488
0.00050342105
0.00039103052
0.0023099615
0.0024395935
0.0027358333
0.0034732642
0.0034792541
0.0033013996
0.00276885
0.0032683621
0.0030664277
0.0003246333
0.00035331502
0.00026305792
0.00024887524
0.00051678814
0.00051218414
0.00046795386
0.00044094905
0.00023955043
0.00021851771
0.00041436003
0.00039838996
0.0006311318
0.00056542628
0.00064484269
0.00053388592
0.00038573684
0.00048614654
0.00027411011
0.00030876268
0.00035752528
0.00039924333
0.0003926335
0.00039713512
0.00037689571
0.0002590449
0.00016458548
0.00024596956
0.00041488738
0.0030732448
0.0004716081
0.00050179118
0.003058553
0.00034564063
0.00039351747
0.00033277916
0.00045632744
0.00038376963
0.0034674479
0.00035740257
0.0036935889
0.00038673824
0.00057404117
0.00059890807
0.00063733969
0.0042567627
0.00064857089
0.00044440008
0.00036710026
0.00039931063
0.00037220902
0.00028255136
0.00035418068
0.00014925175
0.00022127094
0.00032616442
0.00023520343
0.00050476111
0.00046611507
0.00045073543
0.000468618
0.0004925499
0.00056991381
0.0031271598
0.0017575846
0.0020945386
0.0030179066
0.00052716716
0.0004374425
0.00032458107
0.0006809918
0.00058574186
0.00062735902
0.00069736668
0.00069744682
0.00070753315
0.00059260354
0.0004757406
0.00032682436
0.00032904546
0.00032624385
0.00030644236
0.00029644021
0.00026413495
0.00025179714
0.00021303765
0.00020116952
0.00016687074
0.00015680493
0.00028061479
0.00026176213
0.00035385473
0.00025678999
0.00019886813
0.00038779964
0.0004729833
0.00042456326
0.00048314845
0.00037858123
0.00046554235
0.00066399985
0.00059857551
0.00060439136
0.00059673787
0.00065351446
0.00067987408
0.00033745488
0.00024633074
0.00025312902
0.00012639186
0.00044993929
0.00057039332
0.00049031297
0.00038107738
0.00028493659
0.00036135277
0.00018081838
0.00019680565
0.00042611356
0.00045370219
0.00035634186
0.00038942283
0.00047711336
0.00057305946
0.00057061865
0.00061920847
0.00067502753
0.00065418226
0.00068613209
0.00035787047
0.00038457084
0.00045326266
0.00032520294
0.00025503809
0.00030043659
0.00038898534
0.00030957533
0.00012984989
0.00017835954
0.00020531897
0.00019009339
0.00024492411
0.00026423822
0.00024904671
0.00020262521
0.00037698585
0.00044885529
0.00045954255
0.00040128684
0.00040019843
0.00044648482
0.00054231402
0.00040746021
0.00046677162
0.0004820326
0.00040815113
0.00045417746
0.00039121756
0.0002977871
0.00030351043
0.00032894283
0.00038264216
0.00039916925
0.00039703817
0.0003917378
0.00038540615
0.00027685172
0.00027944126
0.00032179516
0.00022887341
0.00050915711
0.00047101814
0.00048290016
0.00046812519
0.00032919638
0.00032462517
0.00049160723
0.00043506044
0.00041213782
0.00041110076
0.00036939584
0.00037853443
0.00035476438
0.00035319937
0.00034421247
0.00028985426
0.00018777138
0.00043259622
0.00021659753
0.00036968697
0.00046675655
0.00042092432
0.00041653416
0.00029900954
0.00027759066
0.0001663612
0.00025296982
0.00013524089
0.0002130571
0.00026960179
0.00025633361
0.00023118255
0.0004113921
0.00038190402
0.00022686047
8.7273846e-30
0.0016277642
0.014085886
0.002035361
0.0012063591
0.0022306677
0.00090461709
0.0062245528
0.003863594
0.0013564501
0.00048607364
7.4854129e-05
0.0014535835
0.00051082382
0.00010870106
0.00048645104
0.00028016071
0.00047580543
0.00073309574
0.0015668095
0.0033340291
0.0027438152
0.00063768343
0.00045133791
0.00016027131
0.00029104343
0.0003139956
0.00052664529
0.00057920891
0.0017254726
0.00030623153
0.00038911911
0.00052568529
0.00056313273
0.00015564468
0.00010942494
0.00019020331
0.00038032488
0.0092112646
0.00031621342
0.00044519535
2.483869e-05
1.7252315e-05
1.6854193e-07
2.2230891e-07
0.0001092336
2.2553483e-07
4.590954e-05
1.8461955e-07
2.0593197e-07
0.00015067032
2.6008746e-07
0.00031496953
2.4820001e-06
1.9626162e-05
2.182794e-05
2.4140774e-05
1.9051472e-05
1.8946061e-05
5.0225506e-05
3.9494401e-05
0.00022302131
0.00020287426
0.00041822857
0.00043114489
0.0018196044
0.00029809897
0.00015191773
0.00032910915
0.00013327645
1.2139452e-06
0.00048076051
1.2775713e-06
0.00045781864
7.5978718e-07
0.00050158372
1.142216e-05
0.0006025371
1.4048191e-06
0.00050445508
1.3427136e-06
0.00052871842
9.8422667e-07
0.00039405598
1.0381473e-06
0.00037463429
4.0964687e-05
4.3169944e-05
5.0501706e-05
5.3173489e-05
1.1527054e-06
0.00041442066
1.0941222e-06
0.00043568251
4.7942315e-05
4.5497263e-05
8.1648901e-05
9.7047622e-05
4.3425967e-07
0.00059885857
1.1072465e-06
0.00061320443
7.2745265e-05
6.8097795e-05
5.8839442e-05
5.5953371e-05
1.4448838e-06
0.00057722083
1.3988655e-06
0.00055321556
6.1778096e-05
6.4781439e-05
0.00110152
5.7062212e-05
1.4764083e-07
0.00024539812
1.6987049e-07
0.00018467832
0.00036894755
0.00024937615
1.2843707e-05
8.5483727e-05
0.00040032139
1.050651e-06
0.0014967339
5.4536309e-06
0.00027031139
1.8136254e-07
0.00016798757
1.214112e-07
8.7411293e-05
0.00013623276
0.00036353914
2.2030692e-07
0.00027355844
0.00010412117
3.4000653e-07
1.8297821e-05
1.9863267e-05
2.6861755e-05
1.8869008e-05
1.8297234e-05
6.4432106e-05
3.1430143e-05
0.00029692381
0.00033285043
0.00026236752
0.00029565168
0.00027329659
0.0003436931
0.00031349381
0.00030984821
0.00034603414
0.00031095373
0.00021841658
0.00022870583
0.0002354785
0.00060549026
0.00055668645
3.4311977e-05
0.00034972073
3.5181251e-05
0.00029791194
3.3939492e-05
0.00062685817
0.00020423827
3.2289264e-05
0.00062588428
0.00067501525
0.00066970998
0.00068496472
0.00020847955
0.00023370979
0.00023773448
4.169029e-05
3.4754108e-05
4.2243546e-05
3.5278835e-05
4.2751135e-05
4.288708e-05
4.081538e-05
3.2987179e-05
3.8912769e-05
0.00019402877
3.9203745e-05
3.1465122e-05
3.8227382e-05
2.7453513e-05
2.8302265e-05
0.00034986428
0.00031358175
0.00037994298
0.00045343174
0.00038187931
0.0003242613
0.00033033126
0.00039310698
0.00012276362
0.00013982807
0.00013154326
0.00031763991
0.0003760187
0.00038613945
0.00013530373
6.4440009e-05
7.3499352e-05
0.00011241426
9.9963707e-05
0.00015951836
9.4549329e-05
4.8853961e-05
4.6446003e-05
3.030968e-05
3.3331889e-05
0.00056305884
0.00049175101
0.00050360882
0.0005493399
4.6032987e-05
4.6661565e-05
4.2520364e-05
4.2784574e-05
0.000116605
4.720307e-05
4.7383013e-05
4.3856418e-05
4.2183756e-05
0.00016586488
0.00013396248
0.00013637036
5.7831648e-05
9.4428051e-05
0.0001689077
4.4017406e-05
6.3733768e-05
8.5062634e-05
4.0510218e-05
0.00011508169
0.00056880611
0.0001987123
0.00019597787
0.00020381607
0.00016900049
0.0006156368
0.00016411573
0.00018956804
0.00051016324
0.00055080524
0.0001671079
0.00017339526
3.3277597e-05
4.5131054e-05
0.00064839829
0.00060042923
3.1183644e-05
3.2032854e-05
0.0001322382
0.00016173932
0.00020839149
0.00020954501
0.00010910291
5.1412945e-05
4.7294763e-05
4.9255296e-05
4.8956401e-05
4.9507445e-05
3.0591375e-05
4.8197259e-05
3.9163385e-05
5.2316828e-05
8.8450762e-05
0.00014430286
9.8661524e-05
0.00016654716
0.00015625083
4.6299892e-05
4.3344259e-05
4.8048335e-05
4.6589258e-05
4.2135106e-05
0.00061486737
0.00057104084
4.8069495e-05
5.0111894e-05
4.7020192e-05
4.6407023e-05
0.00051481688
0.00046108809
0.00022590636
0.00020138288
0.00019131578
0.00019649553
0.00022197955
0.00018763266
0.00020147596
0.00019407416
0.00020723696
0.00023153283
0.00020458384
0.00020634052
0.00013874928
3.3744288e-05
4.9760517e-05
5.0369975e-05
3.4942926e-05
4.8924412e-05
4.1126177e-05
3.4546805e-05
0.00015501936
9.6562317e-05
0.00021371669
0.00018009728
0.00018250345
0.00017162943
0.00041680007
0.00046335772
3.3062645e-05
0.00017709423
0.00017805203
0.00065175274
0.00063489616
7.7843639e-05
7.3832177e-05
9.6029337e-05
9.1209891e-05
8.2080571e-05
8.653652e-05
0.00018002965
0.00019499486
0.0001782989
0.0001892375
0.00020568688
0.00023689354
0.00020315714
0.00019928449
0.00020914856
0.00023822631
0.00020563367
0.00020669322
0.00014447606
0.00013675733
0.00012181146
0.000128112
0.00010093798
0.00010600172
0.00011648802
0.00011122874
4.0981589e-05
4.8136528e-05
3.5064397e-05
4.8795876e-05
4.2630173e-05
3.5239794e-05
4.2422764e-05
4.9373771e-05
4.2845505e-05
4.9548722e-05
4.1839981e-05
4.682157e-05
3.1444479e-05
4.4186895e-05
3.5372603e-05
0.00017485639
0.00018383661
0.00015228778
0.00016237184
0.00010836142
0.00012479109
0.00011899377
0.0001134805
0.00010343453
0.00010801105
0.00011337317
9.8714616e-05
8.9886545e-05
0.00010289721
9.4196015e-05
9.8041207e-05
0.0001242519
0.00013075247
0.0001187887
0.00013695365
0.00012982118
0.00014960103
0.00014334244
0.00013534911
0.00014741536
0.00015255423
0.00013940402
0.0001623377
0.00014514474
0.00015534878
0.00014058543
0.00016018689
4.0139965e-05
4.5235582e-05
3.0649261e-05
4.4229891e-05
3.7269156e-05
0.00021215147
0.00020598635
0.00021454528
0.00022156187
0.00018978726
0.00018122587
0.00018958206
0.00019812644
0.00019748333
0.00020411317
0.00021268346
0.00020591521
0.0002156404
0.00021734656
0.00022678973
0.00022519062
2.8945741e-05
2.9680076e-05
0.00021004133
0.0002100093
0.00020315601
0.00021707017
0.00017588717
0.00019508114
0.00017648737
0.00020112222
0.00016322668
0.00016981726
0.00019600982
0.00018933803
0.0001858974
0.00018753514
0.00017986494
0.00019396649
0.00016259486
0.00017204662
0.00017176092
0.00018064748
0.00016410503
0.0001692014
0.00017751179
0.00017198752
0.00021360428
0.00020952005
0.00021825716
0.00022251164
0.00020783797
0.00019468101
0.00020136609
0.0002008806
0.00021320438
0.00020996167
0.00021735274
0.00020597917
0.00022187226
0.00021335537
0.00022049226
0.00021460794
0.00021629326
0.00021754485
0.00022681557
0.00022537695
0.00022173279
0.0002127585
0.00021432335
0.00022021047
8.0678141e-05
0.00016243771
0.00012974527
0.00016345118
0.00012578688
9.9968256e-05
0.00010448621
0.00011393828
0.0001091518
0.00013729677
0.00014524228
0.0001714104
0.00012643703
0.00017620734
0.00013288587
0.00017647331
0.00016172167
2.9278707e-05
5.6311125e-05
6.8693394e-05
9.2858846e-05
8.1664335e-05
0.00012689866
0.00012673495
0.00011134295
8.9757475e-05
0.00013800932
0.00017357451
0.0001397508
0.00011778824
9.5605079e-05
9.140597e-05
8.3504112e-05
8.7369299e-05
0.00011882391
0.00012374419
0.00013346227
0.00012863968
5.1336531e-05
5.2502773e-05
6.0685678e-05
4.2920028e-05
3.4277268e-05
3.6073487e-05
3.8757586e-05
0.00055687739
0.00061953654
0.00046501584
0.00049823658
0.00051842435
0.00060398493
4.8944608e-05
4.5097804e-05
4.9634414e-05
4.7118472e-05
4.5972898e-05
4.4159296e-05
4.5644108e-05
4.9471976e-05
0.00013387726
0.00012725975
0.00016283689
0.00017063649
0.00011438139
0.00012068385
0.00015465004
0.00014624792
0.0001084044
0.00010275056
0.00013111117
0.00013877626
0.00015340184
0.00011775508
0.00018506921
0.00020526313
0.00019757049
0.0002116155
0.00013916433
0.00014507862
0.00016623574
0.00017637214
0.00015827651
0.00015223396
0.00019684675
0.00018453612
5.0210332e-05
4.6653463e-05
5.0404027e-05
4.7353956e-05
4.7465743e-05
4.5899002e-05
4.4107241e-05
4.5234566e-05
0.00016151813
0.00013504133
0.00011073431
0.00010535777
0.00011996565
0.00012656181
0.00013495786
0.00012865052
0.00014730983
0.00015401082
0.00011641861
0.00012240544
0.00014023564
0.00013301095
0.00014010967
0.00014607748
0.00015008229
0.00015893909
0.00016443783
0.00018328211
0.00017499799
0.00018922706
0.0001594721
0.00015335263
0.00017843576
0.00016779308
0.00017489079
0.00013589785
0.00017775024
0.0001365877
0.00022063094
0.00021052329
0.00021782667
0.00021191394
0.00022023404
0.00020995037
0.00021156838
0.00021858104
0.00020654911
0.0001920326
0.00019871303
0.00019828476
0.00021151033
0.00020717101
0.0002157853
0.00020327859
5.2541372e-05
0.00010515314
0.00011371883
4.7963026e-05
3.7085e-05
4.0828772e-05
3.5900828e-05
4.2224405e-05
0.00010945605
7.4112117e-05
7.0134515e-05
7.7123636e-05
3.7328599e-05
0.00011430619
8.2516525e-05
6.9012822e-05
6.5052503e-05
3.6730364e-05
0.0071118274
0.0003362033
0.00030049857
0.00050838017
0.0012202221
0.00038555841
0.0056372475
0.0047681357
0.017234071
0.063473782
0.0076061177
0.0034367575
0.0042230787
0.00046952919
0.0058727791
0.0024723966
0.0038424965
0.0013297706
0.0012798679
0.0032659046
0.019441548
)


3641
(
0.0071177147
0.002323893
0.0022610761
0.004931989
0.0031990828
0.0014666061
0.0019531176
0.0025365648
0.003471655
0.0010652541
0.00044089898
0.00048298633
0.00039331235
0.00048225571
0.0018003159
0.083753289
0.014215007
0.12119037
0.028863898
0.019462236
0.012576013
0.012368493
1.0538809e-05
4.6882851e-07
4.0746805e-07
3.9029837e-07
5.1890486e-07
5.6356661e-08
8.5315833e-05
1.4006312e-06
4.8697964e-07
3.7893217e-07
4.0852649e-07
5.1962426e-07
1.7187908e-07
7.7494789e-05
4.7492355e-05
4.9236193e-05
4.1812379e-05
3.962764e-05
5.5601656e-05
5.8128562e-05
5.4357928e-05
5.3426807e-05
3.4843279e-05
3.4319285e-05
0.00020750726
0.00043665337
0.00041999638
0.00051928681
0.00051663864
0.00030004946
0.00049388903
0.00048126339
0.00036847858
0.00050818789
0.00049330916
0.0003515036
6.9935348e-05
0.00037591319
4.5111041e-07
0.00045261562
4.2930252e-07
0.00040292812
0.00051907447
4.5385604e-07
0.00051127251
5.0236128e-07
0.00031836503
3.8563462e-07
0.00010903749
0.000460657
2.0101543e-07
0.0004675754
5.0091368e-07
0.00038569014
3.4257056e-07
0.00051565055
4.1372551e-07
0.00050339552
5.1352162e-07
0.00033485774
2.7493294e-07
7.0991464e-05
4.5658798e-05
5.0825486e-05
4.3742261e-05
3.7523501e-05
5.5329324e-05
6.4512111e-05
5.5000703e-05
5.2243424e-05
3.912351e-05
3.5717945e-05
0.0020861497
0.0019150212
0.0022230388
0.0028648601
0.0010513423
0.0021169652
0.0014192004
0.00095136189
0.0011292118
0.00086568752
0.00081833134
0.002427638
0.00014347681
0.00015513426
0.0031514371
0.00010618032
0.00015440947
0.00035609018
6.4536295e-05
0.00021650893
0.0004750198
0.00012602231
7.0532207e-05
0.00015524079
0.0021217949
0.00013996356
0.00010929754
0.00010349773
6.3201407e-05
3.7462941e-05
6.8739578e-05
0.00010913298
0.00020719684
0.00019478929
0.00018810811
3.5238748e-05
0.00018862789
3.3573313e-05
0.0019060684
0.0011602325
0.0010725998
0.00043901308
0.00014473937
0.00015597937
0.00044556289
6.6106642e-05
0.00014128395
0.00042598543
0.00011276645
5.9836168e-05
0.00016085611
0.00025873804
3.5200775e-05
0.00015161663
0.00015337818
0.00014460913
0.00014811437
5.3802135e-05
7.6125981e-05
5.0022192e-05
5.8494657e-05
0.00010271417
0.00014531682
0.00012375102
8.3627546e-05
9.3204065e-05
0.00011245832
0.00012769448
0.00012317863
4.9944852e-05
4.6338186e-05
8.9652856e-05
9.7668059e-05
3.2420253e-05
3.2456934e-05
3.2426316e-05
3.1590419e-05
3.2305209e-05
2.8464548e-05
3.1006211e-05
2.8770251e-05
2.9532373e-05
3.1243776e-05
2.9952458e-05
0.002337787
0.0012753674
0.0015143174
0.00025510292
0.00016739434
0.0002713038
0.00015590854
7.1815116e-05
0.00031660563
5.5020498e-05
6.8271541e-05
5.9167993e-05
0.00026733748
3.9934978e-05
5.0578488e-05
8.0120793e-05
0.00011138828
0.00011566222
0.00012420038
0.00012637283
7.4691019e-05
7.7236683e-05
0.00012970288
0.00014894215
0.00012613764
3.3451704e-05
0.00019820544
3.2049219e-05
3.2806654e-05
3.3017104e-05
0.00019864818
3.2936957e-05
0.00017294173
3.1685161e-05
3.0368256e-05
3.1688665e-05
0.00018497099
3.0362668e-05
0.00015269683
0.00012189966
0.00012785203
0.000130087
0.00015439054
0.00012906699
9.2499268e-05
0.00039837414
9.2423622e-05
0.00012918602
0.00011925602
0.00010994091
9.9867527e-05
0.00012480448
0.00010679554
4.7064332e-05
0.00030260883
4.3615517e-05
0.00019097372
5.4351902e-05
5.2769132e-05
0.00011342413
0.00010877484
8.4756096e-05
9.8935082e-05
6.0134249e-05
4.7965717e-05
3.6241483e-05
4.4618931e-05
6.5052177e-05
8.3295035e-05
0.00012455273
9.0904998e-05
2.7434693e-05
3.3957567e-05
2.9056497e-05
0.00011019395
0.00046198266
0.00010931696
0.00045791025
0.00010349241
0.00010833323
0.000385059
0.00010132485
9.3747552e-05
0.0006226972
9.221128e-05
0.00051879191
0.00049058123
9.1243301e-05
0.00011271528
0.00010357674
0.00013269931
0.00011839554
0.0003017624
0.00027424202
0.00018284734
0.00020282804
0.00039234932
0.00042520303
0.00055325309
0.00011392533
0.00011547714
0.0001163711
0.00057175835
0.00011855776
0.00012046351
0.00012590457
0.0006226896
0.00013203514
0.00013345592
0.00013015198
0.00063701556
0.00013613949
0.00013750645
0.00014198771
0.00066833858
0.00014661911
0.00014782312
0.00014536055
0.00067750527
0.00014934242
0.0001504887
0.00015306257
0.00068802273
0.0001545764
0.00015553125
0.00015468242
0.00068536682
0.00015517843
0.00015607208
0.00015613835
0.00066879061
0.00015299309
0.0001538338
0.000155389
0.00065719934
0.00015088994
0.00015174791
0.00014948086
0.00060938243
0.0001387829
0.00013957234
0.00014640161
0.0022189812
0.0018556546
0.0019908251
0.00049006908
0.0017262467
0.0017061517
0.0015383895
0.0031591032
0.0038301426
0.00056167042
0.00024716389
0.0011417081
0.0028518612
0.0019855569
0.0026581607
0.00034257741
0.0017239286
0.0019157986
0.0023098495
0.00089943252
0.0010312553
0.00097134504
0.0010975261
0.00012818322
0.00029308116
0.00017777421
0.00082181301
0.00077237396
0.00073990949
0.00064013775
0.00065822055
0.00063553359
0.0032608047
0.00056456316
0.00012265915
0.0028518743
0.00038183034
5.8306272e-05
5.9573569e-05
4.009469e-05
3.5604758e-05
7.5028785e-05
6.456011e-05
3.3492504e-05
3.3405434e-05
0.00046344536
0.0014802017
0.0016161104
0.001295653
0.0010353674
0.0014321568
0.0012828522
0.00086367576
0.0010735983
0.00058340535
0.00014225618
0.00020245152
0.00022665612
0.00023823193
0.00021411982
0.0003741563
0.00011442738
0.00026649368
0.00019722618
0.00070744756
0.00073032161
0.00073073924
0.00074497185
0.00059635535
0.0006614316
0.00073143434
0.00071561148
7.4887629e-05
6.9556235e-05
6.3720538e-05
5.7717928e-05
0.00011986169
0.0001356591
8.2018632e-05
9.221215e-05
0.00010187246
0.00010897548
0.0006854694
0.00066467813
0.00058107557
0.00060878692
0.00042060982
0.00052981749
5.3921254e-05
4.7304329e-05
4.3062561e-05
4.3945561e-05
8.204445e-05
8.3083828e-05
0.00010592417
9.052848e-05
3.307981e-05
3.3212337e-05
3.2491482e-05
3.2490292e-05
3.3225783e-05
3.2407877e-05
3.1885292e-05
3.3107319e-05
3.2122781e-05
2.8823758e-05
2.6830501e-05
3.2227194e-05
2.8903201e-05
2.8942551e-05
2.8930918e-05
2.9186892e-05
3.0233644e-05
3.206691e-05
3.0847347e-05
3.0750776e-05
3.0407341e-05
0.0023163152
0.0021362232
0.0020964972
0.0013826579
0.0015681941
0.0016935381
0.0018429626
0.0014714765
0.0017958273
0.00023535234
0.00027848521
0.00017062556
0.00021098878
0.00027811468
0.00024891945
0.00019878893
0.00017025622
0.00014362077
0.0001290262
0.00013832702
0.00012789424
0.00013484224
0.00012423528
0.00014170646
0.00012622733
0.00014433233
0.00013017343
0.00012985384
0.00014313255
0.00013181449
0.00011634735
0.0001211403
0.00011319665
0.00010832994
0.00010162136
0.00010396568
0.00011731544
3.3028421e-05
2.9595396e-05
0.00050102025
0.00047387595
0.00060612007
0.00065053689
7.4771508e-05
5.8264373e-05
5.507616e-05
5.235811e-05
3.7659311e-05
3.0599905e-05
0.00025091842
0.00021829452
0.0003498454
0.00038228144
6.5500937e-05
6.2955462e-05
5.9984888e-05
4.8908497e-05
4.3018673e-05
3.4912132e-05
4.6596642e-05
4.507058e-05
9.1582916e-05
7.0616699e-05
8.9264357e-05
0.00011453374
0.00010427616
0.00011678618
3.4575345e-05
3.0374883e-05
3.2360119e-05
2.9175625e-05
3.261178e-05
2.9900472e-05
3.3011991e-05
2.9618014e-05
3.3014705e-05
3.0028628e-05
3.127622e-05
2.8849282e-05
3.0807042e-05
2.7155826e-05
3.2796571e-05
3.1715237e-05
3.1047934e-05
2.7492978e-05
8.4245734e-05
9.3723654e-05
9.3098528e-05
7.4678518e-05
5.0882672e-05
4.1702472e-05
4.0493692e-05
3.8708621e-05
8.7510942e-05
0.00011017148
0.00010996101
8.8269864e-05
0.00010539608
8.3709767e-05
0.00010701543
8.7521638e-05
9.8951619e-05
8.2088837e-05
7.4892542e-05
9.633503e-05
0.00045321175
0.00047242933
0.00024701645
0.00027442715
0.00013670765
0.00030492193
0.00015188717
0.0003313561
0.00013912495
0.00016350583
0.00046745841
0.00038327089
0.00039980468
7.9951364e-05
8.9312678e-05
7.6702465e-05
6.6334947e-05
0.00050116674
0.00051793294
0.00069934137
0.00016673735
0.0014613635
0.00025532652
0.00018468904
0.0010227157
9.7345247e-05
0.00012665566
0.0003569631
0.00028394109
0.00037302111
0.0010634536
9.6718177e-05
0.0010307085
9.1743372e-05
9.686214e-05
0.00010557061
0.00022977729
0.0013291801
0.00020859202
7.473442e-05
6.3310765e-05
0.00067278653
0.00074040897
0.0007119928
0.00074662921
0.00052739067
0.00071162391
0.00085709295
0.00072453714
0.00079814079
0.00064358041
0.00054543382
0.00062143035
0.00048834813
0.00066452204
6.2531094e-05
0.00012828775
8.1885789e-05
0.00027272526
0.00023320974
5.7386877e-05
0.00011918988
8.9952724e-05
5.5681336e-05
5.1641035e-05
3.8778916e-05
4.1566284e-05
7.0496145e-05
7.654232e-05
0.00010922229
9.9656929e-05
4.0356293e-05
3.196628e-05
3.0348994e-05
0.0025946577
0.0033592096
0.0041023518
0.0023180023
8.956365e-05
0.00049713928
0.000521872
0.0001054873
0.00014799202
0.00010438943
0.00033082643
0.00024850467
0.00016462946
0.0002246953
0.00036105589
0.00046068118
0.00053724748
0.00011821901
0.00059017808
0.00012181369
0.00060698527
0.00013433137
0.00064881321
0.00013829319
0.00065873264
0.00014835629
0.00068458732
0.00015094022
0.00068815823
0.00015576117
0.00068162857
0.00015625035
0.00067669509
0.00015401058
0.00064333093
0.00015202536
0.00062853002
0.00014148487
0.00051495458
0.0004317477
0.0006162938
0.00053870781
0.00048934385
0.00052919538
0.00056141304
0.00022008333
0.00027905788
0.00030213574
0.0003108035
0.00014352851
0.0001196579
0.00032125566
0.00027859172
0.00016977805
0.00015996514
0.0006222835
0.0005786604
0.00068972744
0.00055099027
0.00051356941
0.00035058037
0.00035511181
5.5071607e-05
3.8108054e-05
7.0101585e-05
3.1565562e-05
0.00013553709
0.00040831993
0.00043501546
0.00050426131
0.00060310416
0.00017992981
0.00021109317
0.00019348298
0.0001777891
0.00032978404
0.00040511838
8.0582241e-05
0.00010726446
0.00010080416
0.00025423336
0.00024157729
0.00018768239
0.0002184973
0.0006960409
0.00068557285
0.0008427228
0.00074212946
0.00072754886
0.00071426866
0.0008650007
0.00074711823
0.00051102924
0.00061545385
0.00068623207
0.00068655306
0.00073537175
0.0007386397
0.00073211974
0.00070232917
6.8522861e-05
6.2825219e-05
0.0001313575
9.0019643e-05
9.8992558e-05
0.00069591397
0.00067879457
0.00066301774
0.0006466763
0.00056739237
0.00055630524
0.00068715731
0.00063158944
0.0003921405
0.00047284748
0.00056446087
0.00052417616
5.1001971e-05
4.0887334e-05
7.6264764e-05
9.8468842e-05
3.3280639e-05
3.3283979e-05
3.2696118e-05
3.2928595e-05
2.8259289e-05
3.0142315e-05
2.9241705e-05
2.9710936e-05
3.1676338e-05
3.1236526e-05
0.00025487533
0.00021542536
0.00025464538
0.00021535791
0.00014236054
0.00014057432
0.00013752198
0.00013982139
0.00014447246
0.0001440694
0.00012849247
0.00012491222
0.00011057161
0.00011367844
3.2669084e-05
0.00013565845
0.00052716463
0.00045011091
0.00042625283
0.00044469922
8.3363714e-05
8.6333117e-05
7.2982063e-05
6.9713087e-05
0.00056023865
0.00061492042
0.00079829245
0.00067748335
7.4448189e-05
4.8806847e-05
3.3318119e-05
0.00028419175
0.00022127692
0.00018342019
0.00019439651
9.671647e-05
9.9179592e-05
0.00031713709
0.00031505511
0.00041405803
0.00034332935
9.5619503e-05
9.3993207e-05
5.9644904e-05
5.9927424e-05
5.8164057e-05
5.3387996e-05
3.8257305e-05
4.1313452e-05
9.1090647e-05
0.00010228671
0.0001253496
3.5397715e-05
2.9467902e-05
2.9698976e-05
3.007125e-05
3.005466e-05
2.8405989e-05
2.7995946e-05
3.9399145e-05
3.1659163e-05
0.00010168531
8.3880437e-05
4.5153159e-05
3.5745891e-05
8.8825262e-05
8.8637209e-05
8.5220027e-05
8.6440201e-05
8.0040625e-05
7.8100107e-05
0.00056459247
0.00045027475
0.00027921731
0.00056430316
0.0002603629
0.00042306562
0.00057969942
0.00043763012
0.00045383678
0.00058122257
0.00045497024
0.00028750523
0.00062744756
0.00029052869
0.00047506687
0.00064806636
0.00066731847
0.00053760511
0.00045173363
0.00038308072
0.00022226252
1.7687553e-30
0.00062802942
0.0020300009
0.0010620829
0.0010411908
0.00064823472
0.0023809664
0.00099063087
0.00045063799
7.7115597e-05
0.00095236392
0.0004095858
0.0001212156
0.00047199394
0.00026630382
0.00044368073
0.00083191812
0.0011725123
0.00094043625
0.00029721236
0.00017422092
0.00020142042
0.00019802811
0.00042546854
0.0004290929
0.001072002
0.00025624388
0.00011928236
9.5620423e-05
0.013780229
5.0335497e-05
7.2847275e-05
1.079832e-05
7.3455741e-06
5.882538e-08
8.5565399e-08
2.6235285e-05
6.4892998e-08
7.4179512e-06
6.2040665e-08
8.1692421e-08
3.7169096e-05
7.8170993e-08
5.1585852e-05
1.0589499e-06
8.437102e-06
7.6467451e-06
8.1610078e-06
7.3737738e-06
7.5599946e-06
1.4522052e-05
1.1909037e-05
7.6401437e-05
7.1864897e-05
0.00010470687
0.00011290256
0.00027613028
9.1708304e-05
5.9042241e-05
9.7455495e-05
5.3227208e-05
5.5576888e-07
0.00020229369
5.6484334e-07
0.00019956073
2.4829407e-07
0.00015086408
3.5507407e-06
0.00018997585
5.7662874e-07
0.00020461309
5.7243121e-07
0.00020642651
2.3253235e-05
2.3645593e-05
2.717085e-05
3.0711845e-05
1.5166678e-07
0.0002066781
4.0233256e-07
0.0002024659
2.5387263e-05
2.4854646e-05
2.4294009e-05
2.399412e-05
5.7014771e-07
0.00020788567
5.2991913e-07
0.00020760056
2.452063e-05
2.4677847e-05
0.000169267
2.3571905e-05
5.3188085e-08
8.1202487e-05
6.3483596e-08
6.7563097e-05
8.7373284e-05
7.1625272e-05
3.3187635e-06
2.4970978e-05
0.00010940434
2.8722499e-07
0.00022899619
8.8330004e-07
8.6296006e-05
5.8931307e-08
6.3390141e-05
4.9406473e-08
2.2896348e-05
4.0872341e-05
0.00010349284
6.8589723e-08
4.4759846e-05
4.2540019e-05
1.4265492e-07
7.708061e-06
7.1997976e-06
8.7541828e-06
7.0721179e-06
7.5121403e-06
1.7782748e-05
9.8579608e-06
0.00020403241
0.00023518296
0.00020945694
0.0002399232
0.0001132983
0.00016701269
0.00013841341
0.00014203793
0.00021347534
0.00029368378
6.3649977e-05
0.00012778284
8.3381288e-05
0.00021860924
0.00018385877
2.482031e-05
0.00019024663
1.9716097e-05
0.00012088251
1.6749827e-05
0.00048927259
0.00016008459
2.7695078e-05
0.00040302569
0.00036661795
0.00027082471
0.00031784756
5.769095e-05
0.00011773525
9.1036638e-05
2.9907352e-05
2.3804928e-05
2.8635749e-05
2.0724824e-05
2.3547798e-05
2.4799802e-05
1.9733313e-05
1.5687442e-05
1.8124647e-05
0.00017134117
3.3575012e-05
2.8601492e-05
3.4784192e-05
2.9646693e-05
3.2289607e-05
0.00023360234
0.00018595587
0.0002169882
0.00036553897
0.00036193009
0.00012290383
0.00012912099
0.00013966389
4.0349046e-05
0.00011287745
7.847636e-05
0.00016434613
0.00016328888
0.00019063974
5.3407915e-05
7.5761374e-05
8.721729e-05
0.00013923198
0.0001225505
0.00020163584
0.00012768311
5.5602098e-05
5.2244886e-05
3.4989639e-05
3.6377538e-05
3.2030687e-05
3.053226e-05
3.6184504e-05
3.8867811e-05
3.6656842e-05
2.4520819e-05
2.5922378e-05
1.9756341e-05
1.8294211e-05
0.00014838405
7.304177e-05
5.7735727e-05
7.325324e-05
0.00012869326
0.00023922808
5.3456545e-05
8.1905567e-05
0.00011427108
4.8543497e-05
0.0001045239
0.00029532608
6.3986617e-05
0.00012462658
6.9932337e-05