/*--------------------------------*- C++ -*----------------------------------*\
  =========                 |
  \\      /  F ield         | OpenFOAM: The Open Source CFD Toolbox
   \\    /   O peration     | Website:  https://openfoam.org
    \\  /    A nd           | Version:  8
     \\/     M anipulation  |
\*---------------------------------------------------------------------------*/
/*   Windows 32 and 64 bit porting by blueCAPE: http://www.bluecape.com.pt   *\
|  Based on Windows porting (2.0.x v4) by Symscape: http://www.symscape.com   |
\*---------------------------------------------------------------------------*/
FoamFile
{
    version     2.0;
    format      ascii;
    class       labelListList;
    location    "constant/vegetation";
    object      globalFaceFaces;
}
// * * * * * * * * * * * * * * * * * * * * * * * * * * * * * * * * * * * * * //


972
(

1056
(
2
3
4
5
6
7
8
9
10
11
12
13
14
15
16
17
19
20
21
23
24
25
26
27
28
29
30
31
32
33
34
35
36
37
38
39
40
41
42
43
44
45
46
47
48
49
50
51
52
53
54
55
56
57
58
59
60
61
62
63
64
65
66
67
68
69
70
71
72
73
74
75
76
77
78
79
80
81
82
83
84
85
86
87
88
89
90
91
92
93
94
95
96
97
98
99
100
101
102
103
104
105
106
107
110
120
134
135
136
194
195
196
330
333
338
342
343
344
345
346
347
348
350
352
356
360
364
368
372
376
380
384
388
392
396
397
398
399
400
401
402
403
404
405
406
407
408
409
410
411
412
413
414
415
416
417
418
419
420
421
422
423
424
425
426
427
428
429
431
432
441
442
443
444
445
446
447
448
449
450
455
456
457
458
459
460
461
462
463
464
465
466
467
478
479
480
481
482
483
513
514
515
516
517
518
519
520
521
567
568
569
570
577
578
579
580
633
634
635
636
637
638
639
640
641
642
643
644
645
646
647
648
649
650
651
652
653
654
655
656
657
658
659
660
661
662
663
664
665
666
667
668
669
670
671
672
673
674
675
676
677
678
679
680
681
682
683
684
685
686
687
739
740
741
742
743
744
747
749
750
751
752
753
754
755
756
757
759
761
763
765
767
769
771
773
775
777
779
780
781
782
783
784
785
786
787
788
789
790
791
792
793
794
795
796
797
798
799
800
801
802
807
808
809
810
811
814
815
816
817
818
819
820
821
822
823
824
825
826
827
828
829
830
831
832
833
834
835
836
837
838
839
840
846
847
848
849
850
851
852
853
854
855
856
857
895
896
897
898
899
900
901
902
903
904
905
906
907
911
912
913
914
915
916
917
918
919
920
921
922
923
924
951
952
953
954
955
956
957
958
959
960
961
962
963
964
965
966
967
968
969
970
971
972
974
976
977
978
979
980
981
982
983
984
985
986
987
988
989
990
998
1001
1002
1003
1004
1005
1006
1007
1008
1009
1010
1011
1014
1016
1018
1019
1020
1021
1022
1024
1027
1028
1066
1068
1070
1072
1074
1075
1076
1077
1078
1079
1080
1087
1088
1089
1093
1094
1095
1096
1097
1098
1099
1100
1101
1102
1103
1104
1105
1106
1107
1108
1109
1118
1119
1120
1121
1122
1123
1124
1125
1126
1127
1128
1129
1154
1155
1156
1157
1158
1159
1160
1161
1162
1163
1164
1165
1166
1167
1173
1174
1175
1176
1177
1178
1179
1180
1181
1182
1183
1184
1185
1186
1187
1188
1189
1190
1191
1192
1193
1194
1195
1196
1197
1198
1199
1200
1201
1202
1203
1204
1205
1206
1213
1214
1215
1216
1217
1221
1222
1223
1224
1225
1226
1227
1228
1229
1230
1231
1232
1233
1234
1235
1236
1237
1266
1267
1280
1281
1282
1283
1284
1302
1303
1304
1305
1306
1307
1308
1309
1310
1311
1312
1313
1331
1332
1333
1344
1345
1346
1347
1348
1349
1350
1351
1352
1353
1354
1355
1356
1361
1387
1394
1395
1396
1397
1398
1399
1400
1401
1402
1403
1404
1405
1406
1407
1408
1415
1416
1417
1418
1419
1420
1421
1422
1423
1424
1425
1426
1427
1428
1429
1430
1431
1432
1436
1447
1448
1449
1450
1451
1452
1453
1460
1461
1462
1463
1464
1465
1466
1467
1469
1471
1472
1473
1474
1477
1478
1479
1481
1482
1484
1485
1486
1487
1488
1489
1490
1491
1492
1493
1494
1495
1496
1497
1498
1499
1500
1501
1502
1503
1504
1505
1506
1507
1508
1509
1510
1511
1512
1513
1514
1515
1516
1519
1520
1521
1522
1523
1525
1526
1527
1528
1529
1530
1531
1532
1533
1534
1535
1536
1537
1538
1539
1548
1549
1550
1551
1552
1553
1554
1555
1556
1557
1558
1559
1560
1561
1562
1563
1564
1565
1572
1573
1592
1593
1594
1595
1596
1597
1598
1599
1600
1601
1602
1603
1604
1605
1606
1607
1608
1609
1630
1631
1632
1633
1634
1635
1636
1637
1638
1639
1640
1641
1642
1643
1644
1645
1646
1647
1648
1649
1650
1651
1652
1653
1654
1655
1656
1657
1658
1659
1660
1661
1662
1663
1664
1669
1670
1671
1672
1673
1674
1675
1676
1677
1678
1679
1680
1681
1682
1683
1684
1685
1686
1687
1688
1689
1690
1691
1692
1693
1714
1715
1716
1717
1718
1719
1720
1721
1722
1723
1724
1725
1726
1727
1728
1729
1730
1731
1734
1735
1736
1737
1738
1739
1740
1741
1742
1743
1744
1745
1746
1747
1748
1749
1750
1751
1752
1753
1754
1755
1756
1757
1762
1763
1764
1765
1766
1767
1768
1769
1770
1771
1772
1773
1774
1775
1776
1777
1778
1779
1780
1781
1782
1783
1784
1785
1786
1789
1790
1792
1793
1794
1795
1798
1799
1800
1801
1804
1805
1806
1807
1808
1809
1810
1811
1812
1813
1814
1815
1816
1817
1818
1819
1820
1821
1822
1823
1824
1825
1826
1827
1828
1829
1830
1831
1832
1833
1834
1835
1836
1837
1842
1843
1845
1846
1848
1849
1850
1851
1852
1853
1854
1855
1856
1857
1872
1873
1874
1875
1876
1877
1878
1879
1884
1885
1886
1887
1888
1889
1910
1911
1912
1913
1914
1915
1916
1917
1918
1919
1920
1921
1922
1923
1924
1925
1926
1927
1928
1929
1930
1931
1936
1937
1938
1939
1940
1941
1942
1943
1944
1945
1946
1947
1948
1949
1950
1951
1952
1953
1954
1955
1956
1957
1958
1959
1972
1973
1974
1975
1980
1981
1982
1983
1984
1985
1986
1987
1988
1989
1990
1991
1992
1993
1994
1995
1996
1997
1998
1999
2000
2001
2002
2003
2004
2005
2006
2007
2008
2009
2010
2011
2012
2013
2228
2230
2232
2234
2240
2246
2267
2269
2271
3393
3395
3396
3397
3402
3403
3415
3416
3417
3424
3445
3447
)


3641
(
2
3
4
5
6
7
8
9
10
11
12
13
14
15
16
17
18
19
20
21
22
23
24
25
26
27
28
29
30
31
32
33
34
35
36
37
38
39
40
41
42
43
44
45
46
47
48
49
50
51
52
53
54
55
56
57
58
59
60
61
62
63
64
65
66
67
68
69
70
71
72
73
74
75
76
77
78
79
80
81
82
83
84
85
86
87
88
89
90
91
92
93
94
95
96
97
98
99
100
101
102
103
104
105
106
107
108
109
110
111
112
113
114
115
116
117
118
119
120
121
122
123
124
125
126
127
128
129
130
131
132
133
134
135
136
137
138
139
140
141
142
143
144
145
146
147
148
149
150
151
152
153
154
155
156
157
158
159
160
161
162
163
164
168
171
174
177
179
180
181
182
183
185
187
190
191
192
193
194
195
196
197
198
199
200
204
205
206
207
208
209
210
211
212
213
214
215
216
217
218
219
220
221
234
235
236
237
238
239
240
243
244
245
246
247
248
249
250
251
252
253
254
255
256
257
258
259
260
261
262
263
264
265
266
267
268
269
270
271
272
273
276
279
284
287
292
297
300
305
309
312
315
321
322
323
324
325
326
327
328
329
330
331
333
338
339
340
341
342
343
344
345
346
347
348
350
352
353
354
355
356
357
358
359
360
361
362
363
364
365
366
367
368
369
370
371
372
373
374
375
376
377
378
379
380
381
382
383
384
385
386
387
388
389
390
391
392
393
394
395
396
397
398
399
400
401
402
403
404
405
406
407
408
409
410
411
412
413
414
415
416
417
418
419
420
421
422
423
424
425
426
427
428
429
430
431
432
433
434
435
436
437
438
439
440
441
442
443
444
445
446
447
448
449
450
451
452
453
454
455
456
457
458
459
460
461
462
463
464
465
466
467
468
469
470
471
472
473
474
475
476
477
478
479
480
481
482
483
484
485
486
487
488
489
490
491
492
493
494
495
496
497
498
499
500
501
502
503
504
505
506
507
508
509
510
511
512
513
514
515
516
517
518
519
520
521
522
523
524
525
526
527
528
529
530
531
532
533
549
550
551
552
553
554
555
556
557
558
559
560
561
562
563
564
565
566
567
568
569
570
571
572
573
574
575
576
577
578
579
580
581
582
583
584
585
586
587
588
589
590
591
592
593
594
595
596
597
598
599
600
601
602
603
604
605
606
607
608
609
610
611
612
613
614
615
616
617
618
619
620
621
622
623
624
625
626
627
628
629
630
631
632
633
634
635
636
637
638
639
640
641
642
643
644
645
646
647
648
649
650
651
652
653
654
655
656
657
658
659
660
661
662
663
664
665
666
667
668
669
670
671
672
673
674
675
676
677
678
679
680
681
682
683
684
685
686
687
688
689
690
699
700
701
702
703
705
707
711
713
717
720
723
726
729
732
734
739
740
741
742
743
744
747
748
749
750
751
752
753
754
755
756
757
758
759
760
761
762
763
764
765
766
767
768
769
770
771
772
773
774
775
776
777
778
779
780
781
782
783
784
785
786
787
788
789
790
791
792
793
794
795
796
797
798
799
800
801
802
803
804
805
806
807
808
809
810
811
812
813
814
815
816
817
818
819
820
821
822
823
824
825
826
827
828
829
830
831
832
833
834
835
836
837
838
839
840
841
842
843
844
845
846
847
848
849
850
851
852
853
854
855
856
857
858
859
860
861
862
863
864
865
866
867
868
869
870
871
872
873
874
875
876
877
886
887
888
889
890
891
892
893
894
895
896
897
898
899
900
901
902
903
904
905
906
907
908
909
910
911
912
913
914
915
916
917
918
919
920
921
922
923
924
925
926
927
928
929
930
931
932
933
934
935
936
937
938
939
940
941
942
943
944
945
946
947
948
949
950
951
952
953
954
955
956
957
958
959
960
961
962
963
964
965
966
967
968
969
970
971
972
974
976
977
979
980
981
982
984
985
986
987
988
989
990
1001
1002
1003
1004
1005
1007
1008
1009
1010
1011
1014
1020
1021
1022
1028
1066
1068
1070
1072
1074
1075
1076
1077
1078
1079
1080
1087
1088
1089
1093
1094
1095
1096
1097
1098
1099
1100
1101
1102
1103
1104
1105
1106
1107
1108
1109
1118
1119
1120
1121
1122
1123
1124
1125
1126
1127
1128
1129
1160
1161
1173
1174
1175
1176
1177
1178
1179
1180
1181
1182
1183
1184
1185
1186
1187
1188
1189
1190
1191
1192
1193
1194
1195
1196
1197
1198
1199
1200
1201
1202
1203
1204
1205
1206
1213
1214
1215
1216
1217
1221
1222
1223
1224
1225
1226
1227
1228
1229
1230
1231
1232
1233
1234
1235
1236
1237
1266
1267
1280
1281
1282
1283
1284
1302
1303
1304
1305
1306
1307
1308
1309
1310
1311
1312
1313
1331
1332
1333
1344
1345
1346
1347
1348
1349
1350
1351
1352
1353
1354
1355
1356
1361
1387
1394
1395
1396
1397
1398
1399
1400
1401
1402
1403
1404
1405
1406
1407
1408
1415
1416
1417
1418
1419
1420
1421
1422
1423
1424
1429
1430
1431
1432
1436
1447
1448
1449
1450
1451
1452
1453
1460
1461
1462
1463
1464
1465
1466
1467
1469
1471
1472
1473
1474
1477
1478
1479
1481
1482
1484
1485
1486
1487
1488
1489
1490
1491
1492
1493
1494
1495
1496
1497
1498
1499
1500
1501
1502
1503
1504
1505
1506
1507
1508
1509
1510
1511
1512
1513
1514
1515
1516
1519
1520
1521
1522
1523
1527
1528
1529
1530
1531
1532
1533
1534
1535
1536
1537
1538
1539
1548
1549
1550
1551
1552
1553
1554
1555
1556
1557
1558
1559
1560
1563
1564
1565
1572
1573
1594
1595
1598
1599
1600
1601
1602
1603
1604
1605
1606
1607
1608
1609
1630
1631
1632
1633
1634
1635
1636
1637
1638
1639
1640
1641
1642
1643
1644
1645
1646
1647
1648
1649
1650
1651
1652
1653
1654
1655
1656
1657
1658
1659
1660
1673
1674
1675
1676
1677
1678
1679
1680
1681
1682
1683
1684
1685
1686
1687
1688
1689
1690
1691
1692
1693
1714
1715
1716
1717
1718
1719
1720
1721
1722
1723
1724
1725
1726
1727
1728
1729
1730
1731
1734
1735
1736
1737
1738
1739
1740
1741
1742
1743
1744
1745
1746
1747
1748
1749
1750
1751
1752
1753
1754
1755
1756
1757
1762
1763
1764
1765
1766
1767
1768
1769
1770
1771
1772
1773
1774
1775
1776
1777
1778
1779
1780
1781
1782
1783
1784
1785
1786
1789
1790
1792
1793
1794
1795
1796
1797
1798
1799
1800
1801
1802
1803
1804
1805
1806
1807
1808
1809
1810
1811
1812
1813
1814
1815
1816
1817
1818
1819
1820
1821
1822
1823
1824
1825
1826
1827
1828
1829
1830
1831
1832
1833
1834
1835
1836
1837
1838
1839
1840
1841
1843
1849
1850
1851
1852
1853
1854
1855
1856
1857
1872
1873
1874
1875
1888
1889
1910
1911
1912
1913
1914
1915
1916
1917
1918
1919
1920
1921
1922
1923
1924
1925
1926
1927
1928
1929
1930
1931
1940
1941
1942
1943
1948
1949
1950
1951
1952
1953
1954
1955
1956
1957
1958
1959
1972
1973
1974
1975
1980
1981
1982
1983
1984
1985
1986
1987
1988
1989
1990
1991
1992
1993
1994
1995
1996
1997
1998
1999
2000
2001
2002
2003
2004
2005
2006
2007
2008
2009
2010
2011
2012
2013
2087
2088
2228
2230
2232
2234
2240
2246
2267
2268
2269
2270
2271
2352
2353
2354
2355
2356
2357
2358
2360
2362
2364
2366
2368
2372
2373
2374
2376
2381
2382
2383
2384
2385
2386
2387
2388
2401
2402
2403
2404
2405
2406
2408
2410
2412
2414
2416
2418
2420
2422
2424
2426
2436
2437
2438
2439
2440
2441
2443
2445
2447
2450
2451
2475
2476
2477
2481
2482
2483
2487
2488
2489
2493
2494
2495
2505
2506
2507
2508
2509
2510
2514
2515
2516
2523
2524
2525
2526
2527
2528
2529
2530
2531
2532
2533
2534
2535
2536
2547
2548
2549
2555
2557
2558
2559
2561
2562
2563
2565
2566
2567
2569
2570
2571
2573
2574
2575
2577
2578
2579
2581
2582
2583
2585
2586
2587
2589
2590
2591
2593
2594
2595
2597
2598
2599
2602
2603
2604
2605
2606
2607
2608
2609
2612
2613
2614
2615
2620
2621
2622
2623
2624
2625
2626
2627
2635
2636
2637
2638
2639
2640
2641
2642
2643
2673
2674
2675
2676
2677
2678
2679
2680
2681
2682
2683
2684
2699
2700
2701
2702
2723
2724
2725
2726
2727
2728
2729
2730
2731
2732
2733
2734
2735
2736
2737
2738
2739
2740
2741
2742
2743
2744
2757
2758
2759
2760
2761
2762
2763
2764
2765
2766
2767
2768
2769
2770
2771
2772
2773
2774
2775
2776
2777
2778
2779
2780
2781
2782
2783
2804
2805
2828
2829
2830
2831
2832
2833
2834
2835
2842
2843
2844
2845
2846
2847
2848
2849
2850
2851
2860
2861
2862
2863
2864
2875
2876
2878
2879
2881
2882
2884
2885
2887
2888
2890
2891
2893
2894
2896
2897
2899
2900
2902
2903
2905
2907
2911
2912
2913
2914
2916
2917
2920
2921
2922
2923
2924
2925
2926
2927
2941
2942
2943
2944
2945
2946
2952
2953
2964
2965
2966
2967
2968
2969
2970
2971
2972
2973
2974
2981
2982
2983
2984
2985
2986
2987
2988
2989
2990
3001
3013
3014
3015
3016
3020
3021
3022
3023
3024
3029
3030
3081
3393
3394
3395
3396
3397
3400
3402
3403
3404
3406
3415
3416
3417
3424
3431
3433
3435
3437
3440
3442
3443
3445
3447
3448
3449
3450
3526
3527
3528
3529
3530
3531
3532
3533
3534
3535
3544
3545
3546
3547
3552
3553
3568
3569
3570
3571
3576
3577
3582
3583
3584
3585
3586
3587
3588
3589
3590
3591
3592
3593
3594
3595
3596
3597
3598
3683
3698
3729
3768
3792
3861
3862
3863
3865
3868
3869
3870
3959
3960
3977
3989
3990
3996
3997
3998
3999
4005
4006
4007
4013
4014
4015
4022
4024
4026
4028
4451
4452
4454
4515
4516
4541
4542
4555
4565
4566
4575
4576
4577
4578
4585
4586
4590
4592
4594
4595
4596
4645
4646
4684
4685
4686
4687
4688
4689
4690
4691
4799
5127
5128
5129
5130
5244
5245
5246
5247
5248
5250
5251
5252
5253
5254
5256
5262
5263
5276
5277
5278
5279
5280
5281
5282
5283
5285
5286
5287
5288
5289
5290
5291
5293
5295
5296
5297
5298
5299
5302
5309
5310
5325
5326
5327
5328
5329
5330
5331
5332
5333
5334
5335
5336
5337
5339
5340
5341
5342
5343
5344
5345
5346
5347
5348
5349
5350
5351
5352
5353
5358
5359
5360
5364
5365
5366
5367
5368
5383
5384
5385
5386
5387
5388
5389
5390
5393
5394
5395
5396
5397
5398
5399
5400
5401
5403
5404
5405
5407
5408
5409
5410
5412
5413
5414
5416
5417
5418
5419
5420
5421
5422
5423
5424
5430
5431
5440
5441
5442
5443
5444
5445
5446
5447
5451
5452
5453
5454
5455
5456
5457
5458
5461
5462
5463
5464
5471
5472
5473
5474
5475
5476
5485
5486
5487
5488
5489
5490
5491
5492
5493
5494
5495
5496
5497
5498
5499
5500
5501
5502
5503
5504
5505
5506
5507
5517
5518
5519
5520
5521
5522
5526
5527
5528
5529
5530
5531
5532
5533
5534
5535
5542
5543
5544
5545
5546
5627
5633
5636
5642
5648
5651
5706
5712
5724
5730
5742
5751
5769
5771
5784
5786
5787
5789
5790
5792
5793
5795
5811
5821
5829
5830
5831
5832
5835
5836
5837
5838
5840
5841
5865
5866
5867
5868
5897
5898
5899
5906
5907
5914
5915
5937
5938
5939
5945
5946
5947
5950
5951
5952
5953
5954
5958
5959
6039
6040
6201
6202
6203
6204
6205
6276
6278
6284
6285
6286
6287
6289
6291
6293
6294
6295
6296
6297
6298
6299
6300
6301
6302
6303
6308
6309
6310
6311
6312
6313
6314
6315
6346
6348
6350
6352
6359
6360
6362
6364
6366
6368
6370
6372
6373
6374
6375
6376
6377
6378
6379
6387
6388
6389
6390
6391
6392
6393
6394
6421
6422
6423
6427
6428
6429
6445
6446
6447
6448
6449
6450
6454
6455
6459
6460
6461
6465
6466
6467
6468
6469
6470
6471
6472
6473
6474
6475
6476
6477
6478
6479
6480
6487
6488
6489
6490
6491
6492
6493
6494
6495
6496
6497
6498
6502
6503
6504
6505
6506
6507
6508
6509
6510
6511
6512
6513
6514
6521
6522
6523
6524
6525
6526
6527
6528
6529
6530
6531
6532
6538
6539
6540
6541
6542
6543
6544
6545
6547
6548
6549
6551
6552
6553
6555
6556
6557
6559
6560
6561
6563
6564
6565
6567
6568
6569
6571
6572
6573
6575
6576
6577
6579
6580
6581
6583
6584
6585
6591
6592
6593
6594
6595
6596
6597
6598
6599
6600
6601
6602
6607
6608
6609
6610
6611
6612
6613
6614
6645
6646
6647
6648
6649
6650
6651
6652
6653
6654
6655
6656
6657
6658
6659
6660
6675
6676
6677
6678
6679
6680
6681
6682
6683
6684
6685
6686
6687
6688
6689
6690
6697
6698
6699
6700
6707
6708
6709
6710
6711
6712
6713
6714
6715
6716
6717
6718
6719
6720
6721
6722
6723
6724
6725
6726
6727
6728
6729
6730
6731
6732
6733
6734
6735
6736
6737
6738
6739
6740
6741
6742
6743
6744
6745
6746
6747
6748
6749
6750
6751
6752
6753
6754
6755
6756
6757
6758
6771
6772
6773
6774
6775
6776
6777
6778
6779
6780
6781
6782
6783
6784
6785
6786
6787
6788
6789
6790
6791
6792
6793
6794
6807
6808
6845
6846
6847
6848
6849
6850
6851
6852
6853
6854
6855
6856
6857
6858
6859
6860
6861
6862
6863
6872
6873
6874
6875
6876
6877
6878
6879
6880
6881
6882
6883
6884
6885
6886
6887
6891
6892
6908
6910
6911
6913
6976
6977
6978
6979
6980
6981
6982
6983
6985
6986
6988
6989
6991
6992
6994
6995
6997
6998
7000
7001
7003
7004
7006
7007
7009
7010
7012
7013
7014
7015
7016
7021
7022
7023
7024
7025
7026
7027
7028
7029
7030
7031
7032
7033
7034
7035
7036
7037
7038
7043
7044
7045
7046
7047
7048
7049
7050
7051
7052
7053
7054
7057
7067
7068
7069
7070
7071
7072
7073
7074
7082
7083
7084
7085
7086
7087
7088
7089
7093
7094
7100
7101
7102
7103
7104
7105
7106
7107
7108
7109
7110
7111
7112
7113
7114
7115
7116
7117
7118
7119
7120
7121
7122
7123
7124
7125
7126
7127
7128
7129
7130
7131
7132
7133
7134
7135
7136
7137
7138
7139
7140
7141
7149
7150
7151
7152
7153
7154
7155
7156
7157
7158
7159
7160
7161
7162
7163
7164
7165
7166
7167
7168
7219
7238
7239
7240
7241
7242
7243
7244
7245
7246
7247
7252
7253
7254
7255
7256
7257
7258
7259
7300
7301
7302
7395
7396
7398
7399
7401
7417
7421
7423
7424
7427
7429
7431
7432
7435
7437
7451
7455
7456
7487
7488
7489
7490
7494
7495
7496
7497
7498
7499
7503
7504
7505
7508
7513
7515
7516
7517
7519
7520
7521
7523
7524
7525
7527
7528
7529
7530
7532
7533
7534
7536
7537
7539
7540
7541
7543
7544
7545
7547
7548
7549
7551
7552
7621
7622
7623
7624
7625
7626
7627
7628
7629
7630
7631
7632
7633
7634
7635
7636
7637
7638
7639
7640
7641
7642
7698
7700
7701
7703
7704
7706
7707
7709
7710
7712
7713
7715
7716
7718
7719
7721
7722
7724
7725
7727
7759
7760
7761
7762
7763
7764
7765
7766
7767
7768
7855
7856
7857
7858
7952
7954
7955
7958
7959
7966
7968
7971
7999
8000
8004
8005
8006
8008
8009
8011
8012
8014
8015
8017
8018
8019
8021
8022
8023
8025
8026
8027
8029
8030
8031
8033
8034
8035
8037
8038
8039
8041
8147
8148
8149
8150
8151
8152
8153
8154
8155
8156
8157
8183
8185
8186
8188
8189
8191
8192
8194
8195
8197
8198
8200
8201
8203
8205
8208
8264
8265
8266
8267
8268
8317
8318
8319
8320
8321
8387
8389
8391
8393
8394
8396
8397
8398
8399
8400
8401
8402
8403
8404
8405
8406
8407
8408
8409
8410
8411
8412
8413
8414
8415
8416
8417
8418
8419
8420
8421
8422
8423
8424
8425
8426
8427
8428
8429
8430
8431
8432
8433
8434
8435
8436
8437
8438
8439
8440
8443
8444
8445
8446
8452
8453
8458
8459
8460
8462
8463
8464
8466
8467
8468
8470
8471
8472
8473
8474
8475
8476
8477
8478
8479
8480
8481
8482
8483
8484
8485
8486
8487
8488
8489
8490
8491
8492
8493
8494
8495
8496
8509
8510
8515
8516
8521
8522
8523
8524
8525
8526
8527
8528
8529
8530
8531
8532
8533
8539
8540
8541
8542
8543
8544
8545
8546
8549
8550
8551
8552
8553
8554
8555
8556
8557
8558
8559
8560
8561
8562
8563
8564
8565
8566
8567
8568
8569
8570
8571
8572
8573
8574
8575
8576
8577
8578
8579
8580
8581
8582
8583
8584
8585
8586
8587
8588
8589
8590
8591
8592
8593
8594
8595
8596
8597
8598
8599
8600
8605
8606
8607
8608
8609
8610
8611
8612
8621
8622
8623
8624
8625
8626
8627
8628
8629
8630
8631
8632
8633
8634
8635
8636
8637
8638
8639
8640
8641
8642
8643
8644
8645
8646
8647
8648
8649
8650
8651
8652
8653
8654
8655
8656
8657
8658
8659
8660
8661
8662
8663
8664
8665
8666
8667
8752
8755
8761
8767
8770
8777
8816
8840
8866
8878
8879
8899
8905
8917
8926
8932
8933
8959
8960
8961
8976
8979
8993
8998
9001
9004
9005
9006
9009
9012
9015
9018
9021
9022
9023
9026
9029
9032
9037
9038
9039
9040
9041
9042
9043
9045
9091
9092
9093
9094
9173
9174
9181
9182
9183
9184
9185
9186
9187
9188
9189
9190
9191
9192
9193
9194
9195
9196
9197
9198
9199
9200
9201
9202
9206
9243
9244
9245
9246
9247
9388
9390
9391
9392
9393
9394
9395
9397
9398
9399
9402
9403
9404
9405
9406
9407
9408
9409
9410
9430
9431
9433
9436
9439
9442
9444
9445
9493
9494
9495
9496
9497
9498
9499
9500
9501
9502
9503
9504
9505
9506
9507
9508
9509
9510
9528
9531
9538
9543
9548
9551
9554
9559
9560
9561
9562
9563
9564
9565
9566
9568
9596
9597
9599
9617
9618
9619
9621
9622
9623
9625
9626
9627
9629
9630
9631
9633
9634
9635
9637
9638
9639
9641
9642
9643
9645
9646
9647
9648
9678
9679
9680
9681
9694
9695
9710
9711
9712
9713
9714
9715
9716
9747
9748
9749
9750
9751
9752
9753
9754
9755
9756
9757
9758
9759
9760
9761
9762
9767
9768
9769
9770
9775
9776
9777
9778
9779
9780
9781
9782
9783
9784
9785
9786
9787
9788
9789
9790
9791
9879
9889
9891
9899
9902
9905
9907
9922
9933
9935
9937
9939
9941
9943
9945
9947
9984
9985
9994
10022
10023
10024
10061
10062
10063
10064
10065
10066
10067
10068
10082
10083
10098
10099
10100
10101
10102
10103
10104
10105
10189
10615
10616
10623
10624
10802
10803
11315
11346
11347
11348
11349
11350
11449
11450
11451
11452
11462
11463
11464
11465
11466
11467
11468
11470
11472
11473
11475
11477
11483
11484
11485
11486
11487
11488
11489
11490
11491
11492
11493
11494
11495
11496
11497
11498
11499
11500
11501
11513
11514
11515
11516
11517
11518
11520
11522
11524
11526
11528
11530
11531
11533
11535
11537
11542
11543
11544
11545
11546
11547
11548
11549
11550
11580
11581
11582
11586
11587
11588
11591
11592
11593
11597
11598
11599
11612
11613
11614
11615
11616
11617
11618
11619
11620
11621
11622
11623
11624
11625
11626
11653
11654
11655
11662
11665
11666
11667
11669
11670
11671
11673
11674
11675
11677
11678
11679
11681
11682
11683
11685
11686
11687
11689
11690
11691
11692
11693
11694
11695
11696
11697
11698
11699
11700
11701
11702
11703
11706
11707
11714
11715
11716
11717
11718
11719
11720
11721
11725
11726
11736
11737
11738
11739
11740
11741
11742
11743
11744
11745
11746
11747
11748
11749
11750
11751
11752
11753
11754
11755
11756
11757
11758
11759
11766
11767
11768
11769
11770
11771
11772
11773
11779
11795
11807
11808
11809
11810
11829
11830
11831
11832
11833
11834
11835
11836
11837
11838
11839
11840
11841
11842
11843
11844
11845
11846
11861
11862
11863
11864
11865
11866
11867
11868
11869
11870
11871
11872
11873
11874
11876
11878
11880
11882
11883
11884
11885
11886
11887
11888
11890
11892
11894
11895
11896
11897
11898
11899
11900
11901
11902
11903
11904
11924
11925
11932
11933
11934
11935
11936
11937
11938
11939
11948
11949
11950
11951
12134
12135
12137
12138
12140
12141
12143
12144
12146
12147
12149
12150
12152
12153
12154
12155
12156
12157
12158
12159
12160
12161
12166
12170
12171
12172
12173
12174
12175
12176
12177
12178
12179
12183
12190
12191
12192
12193
12194
12195
12196
12197
12198
12199
12200
12201
12204
12205
12206
12207
12208
12209
12210
12211
12212
12213
12251
12252
12289
12290
12291
12292
12293
12294
12295
12296
12297
12315
12316
12317
12318
12319
12320
12321
12330
12331
12332
12338
12339
12340
12341
12342
12354
12358
12359
12360
12361
12366
12367
)


855
(
0
1
17
19
21
23
24
25
26
27
28
29
30
31
32
33
34
35
36
37
38
39
40
41
42
43
44
45
46
47
48
49
50
51
52
53
54
55
56
57
58
59
60
61
62
63
64
65
66
67
68
69
70
71
72
73
74
75
76
77
78
79
80
81
82
83
84
85
86
87
88
89
90
91
92
93
94
95
96
97
98
99
100
101
102
103
104
105
106
107
110
120
134
135
136
194
195
196
330
333
338
342
343
344
345
346
347
348
350
352
356
360
364
368
372
376
380
384
388
392
396
397
398
399
400
401
402
403
404
405
406
407
408
409
410
411
412
413
414
415
416
417
418
419
420
421
422
423
424
425
426
427
428
429
431
432
441
442
443
444
445
446
447
448
449
450
455
456
457
458
459
460
461
462
463
464
465
466
467
478
479
480
481
482
483
513
514
515
516
517
518
519
520
521
567
568
569
570
577
578
579
580
633
634
635
636
637
638
639
640
641
642
643
644
645
646
647
648
649
650
651
652
653
654
655
656
657
658
659
660
661
662
663
664
665
666
667
668
669
670
671
672
673
674
675
676
677
678
679
680
681
682
683
684
685
686
687
739
740
741
742
743
744
747
749
750
751
752
753
754
755
756
757
759
761
763
765
767
769
771
773
775
777
779
780
781
782
783
784
785
786
787
788
789
790
791
792
793
794
795
796
797
798
799
800
801
802
807
808
809
810
811
814
815
816
817
818
819
820
821
822
823
824
825
826
827
828
829
830
831
832
833
834
835
836
837
838
839
840
846
847
848
849
850
851
852
853
854
855
856
857
895
896
897
898
899
900
901
902
903
904
905
906
907
911
912
913
914
915
916
917
918
919
920
921
922
923
924
951
952
953
954
955
956
957
958
959
960
961
962
963
964
965
966
967
968
969
970
971
972
973
1028
1066
1068
1070
1072
1074
1075
1076
1077
1078
1079
1080
1087
1088
1089
1093
1094
1095
1096
1097
1098
1099
1100
1101
1102
1103
1104
1105
1106
1107
1108
1109
1122
1123
1124
1125
1173
1174
1175
1176
1177
1178
1179
1180
1184
1185
1188
1189
1190
1191
1192
1193
1194
1195
1196
1197
1198
1199
1200
1201
1202
1203
1204
1205
1206
1213
1214
1215
1216
1217
1221
1222
1223
1224
1225
1226
1227
1228
1229
1230
1231
1232
1233
1234
1235
1236
1237
1266
1267
1280
1281
1282
1283
1284
1302
1303
1304
1305
1306
1307
1308
1309
1310
1311
1312
1313
1331
1332
1333
1344
1345
1346
1347
1348
1349
1350
1351
1352
1353
1354
1355
1356
1361
1387
1394
1395
1396
1397
1398
1399
1400
1401
1402
1403
1404
1405
1406
1407
1408
1415
1416
1417
1418
1419
1420
1421
1422
1423
1424
1429
1430
1431
1432
1436
1447
1448
1449
1450
1451
1452
1453
1460
1461
1462
1463
1464
1465
1466
1467
1471
1472
1473
1474
1478
1479
1484
1485
1486
1487
1490
1491
1492
1493
1494
1495
1496
1497
1498
1499
1500
1501
1502
1503
1504
1505
1506
1507
1508
1509
1510
1511
1512
1513
1514
1515
1520
1521
1522
1523
1527
1528
1529
1530
1531
1532
1533
1534
1535
1536
1537
1538
1539
1548
1549
1550
1551
1552
1553
1554
1555
1556
1557
1558
1559
1560
1563
1564
1565
1598
1599
1600
1601
1602
1603
1604
1605
1606
1607
1608
1609
1630
1631
1632
1633
1636
1638
1639
1640
1641
1642
1643
1644
1645
1646
1647
1648
1649
1650
1651
1652
1653
1654
1655
1656
1678
1680
1681
1682
1683
1684
1685
1686
1687
1688
1689
1690
1691
1692
1693
1714
1715
1716
1717
1718
1719
1720
1721
1722
1723
1724
1725
1726
1727
1728
1729
1730
1731
1734
1735
1736
1737
1738
1739
1740
1741
1742
1743
1744
1745
1746
1747
1748
1749
1750
1751
1752
1753
1754
1755
1756
1757
1762
1763
1764
1765
1766
1767
1768
1769
1770
1771
1772
1773
1774
1775
1776
1777
1778
1779
1780
1781
1782
1783
1784
1785
1786
1789
1790
1792
1793
1800
1801
1804
1805
1806
1807
1808
1809
1810
1811
1812
1813
1814
1815
1816
1817
1818
1819
1820
1821
1822
1828
1829
1830
1831
1832
1833
1834
1835
1836
1837
1850
1851
1852
1853
1854
1855
1856
1857
1888
1889
1918
1921
1922
1923
1924
1925
1926
1927
1928
1929
1930
1931
1956
1959
1972
1973
1974
1975
1996
1997
1998
1999
2000
2001
2002
2003
2004
2005
2006
2007
2008
2009
2010
2011
2012
2013
2226
2227
2228
2267
2269
3391
3392
3393
3394
3447
3448
3962
4451
4452
4454
4539
5091
)


1005
(
0
1
17
19
21
23
24
25
26
27
28
29
30
31
32
33
34
35
36
37
38
39
40
41
42
43
44
45
46
47
48
49
50
51
52
53
54
55
56
57
58
59
60
61
62
63
64
65
66
67
68
69
70
71
72
73
74
75
76
77
78
79
80
81
82
83
84
85
86
87
88
89
90
91
92
93
94
95
96
97
98
99
100
101
102
103
104
105
106
107
110
120
134
135
136
194
195
196
330
333
338
342
343
344
345
346
347
348
350
352
356
360
364
368
372
376
380
384
388
392
396
397
398
399
400
401
402
403
404
405
406
407
408
409
410
411
412
413
414
415
416
417
418
419
420
421
422
423
424
425
426
427
428
429
431
432
441
442
443
444
445
446
447
448
449
450
455
456
457
458
459
460
461
462
463
464
465
466
467
478
479
480
481
482
483
513
514
515
516
517
518
519
520
521
567
568
569
570
577
578
579
580
633
634
635
636
637
638
639
640
641
642
643
644
645
646
647
648
649
650
651
652
653
654
655
656
657
658
659
660
661
662
663
664
665
666
667
668
669
670
671
672
673
674
675
676
677
678
679
680
681
682
683
684
685
686
687
739
740
741
742
743
744
747
749
750
751
752
753
754
755
756
757
759
761
763
765
767
769
771
773
775
777
779
780
781
782
783
784
785
786
787
788
789
790
791
792
793
794
795
796
797
798
799
800
801
802
807
808
809
810
811
814
815
816
817
818
819
820
821
822
823
824
825
826
827
828
829
830
831
832
833
834
835
836
837
838
839
840
846
847
848
849
850
851
852
853
854
855
856
857
895
896
897
898
899
900
901
902
903
904
905
906
907
911
912
913
914
915
916
917
918
919
920
921
922
923
924
951
952
953
954
955
956
957
958
959
960
961
962
963
964
965
966
967
968
969
970
971
972
973
1028
1066
1068
1070
1072
1074
1075
1076
1077
1078
1079
1080
1087
1088
1089
1093
1094
1095
1096
1097
1098
1099
1100
1101
1102
1103
1104
1105
1106
1107
1108
1109
1114
1117
1118
1119
1120
1121
1122
1123
1124
1125
1126
1127
1128
1129
1152
1154
1155
1156
1157
1158
1159
1160
1161
1162
1163
1164
1165
1166
1167
1173
1174
1175
1176
1177
1178
1179
1180
1181
1182
1183
1184
1185
1186
1187
1188
1189
1190
1191
1192
1193
1194
1195
1196
1197
1198
1199
1200
1201
1202
1203
1204
1205
1206
1213
1214
1215
1216
1217
1221
1222
1223
1224
1225
1226
1227
1228
1229
1230
1231
1232
1233
1234
1235
1236
1237
1266
1267
1280
1281
1282
1283
1284
1302
1303
1304
1305
1306
1307
1308
1309
1310
1311
1312
1313
1331
1332
1333
1344
1345
1346
1347
1348
1349
1350
1351
1352
1353
1354
1355
1356
1361
1387
1394
1395
1396
1397
1398
1399
1400
1401
1402
1403
1404
1405
1406
1407
1408
1415
1416
1417
1418
1419
1420
1421
1422
1423
1424
1425
1426
1427
1428
1429
1430
1431
1432
1436
1447
1448
1449
1450
1451
1452
1453
1460
1461
1462
1463
1464
1465
1466
1467
1469
1471
1472
1473
1474
1477
1478
1479
1481
1482
1484
1485
1486
1487
1488
1489
1490
1491
1492
1493
1494
1495
1496
1497
1498
1499
1500
1501
1502
1503
1504
1505
1506
1507
1508
1509
1510
1511
1512
1513
1514
1515
1516
1519
1520
1521
1522
1523
1525
1526
1527
1528
1529
1530
1531
1532
1533
1534
1535
1536
1537
1538
1539
1548
1549
1550
1551
1552
1553
1554
1555
1556
1557
1558
1559
1560
1561
1562
1563
1564