/*--------------------------------*- C++ -*----------------------------------*\
  =========                 |
  \\      /  F ield         | OpenFOAM: The Open Source CFD Toolbox
   \\    /   O peration     | Website:  https://openfoam.org
    \\  /    A nd           | Version:  8
     \\/     M anipulation  |
\*---------------------------------------------------------------------------*/
/*   Windows 32 and 64 bit porting by blueCAPE: http://www.bluecape.com.pt   *\
|  Based on Windows porting (2.0.x v4) by Symscape: http://www.symscape.com   |
\*---------------------------------------------------------------------------*/
FoamFile
{
    version     2.0;
    format      ascii;
    class       scalarListList;
    location    "constant/vegetation";
    object      solarLoadFineFaces;
}
// * * * * * * * * * * * * * * * * * * * * * * * * * * * * * * * * * * * * * //


5
(

1227
(
0
0
0
0
717.08284
154.40759
154.40759
618.51489
0
0
0
618.51489
0
260.68557
83.113486
717.08284
717.08284
618.51489
0
0
618.51489
717.08284
0
0
0
0
0
0
0
0
0
0
0
0
0
0
0
0
0
0
0
0
717.08284
717.08284
0
0
0
0
0
0
277.05783
199.02089
100.16384
0
0
0
0
0
717.08284
717.08284
717.08284
717.08284
717.08284
717.08284
717.08284
717.08284
717.08284
717.08284
368.40546
0
100.16384
220.41027
717.08284
0
0
0
0
0
0
0
0
0
717.08284
717.08284
154.40759
277.05783
277.05783
98.970653
106.91247
225.23612
717.08284
717.08284
717.08284
717.08284
717.08284
0
199.02089
363.89777
168.37597
155.39236
717.08284
105.62997
105.62997
199.02089
89.540915
100.16384
100.16384
717.08284
342.63004
98.970653
100.16384
155.39236
204.50114
220.41027
155.39236
105.62997
225.23612
260.68557
260.68557
0
717.08284
717.08284
717.08284
717.08284
717.08284
225.23612
717.08284
717.08284
717.08284
717.08284
717.08284
98.970653
83.113486
83.113486
204.50114
204.50114
98.970653
0
0
0
0
0
0
717.08284
717.08284
717.08284
89.540915
89.540915
89.540915
0
0
0
0
0
0
0
0
0
0
0
0
0
0
0
0
0
0
0
83.113486
83.113486
260.68557
717.08284
717.08284
717.08284
717.08284
717.08284
717.08284
717.08284
717.08284
0
717.08284
717.08284
717.08284
717.08284
0
0
717.08284
717.08284
717.08284
717.08284
0
0
717.08284
717.08284
717.08284
717.08284
0
0
717.08284
717.08284
0
717.08284
717.08284
717.08284
717.08284
0
717.08284
717.08284
0
0
0
0
0
0
0
0
0
0
0
0
0
0
0
0
0
0
0
277.05783
105.62997
277.05783
0
0
0
0
0
0
717.08284
717.08284
225.23612
717.08284
204.50114
168.37597
717.08284
717.08284
717.08284
717.08284
717.08284
717.08284
717.08284
717.08284
717.08284
717.08284
717.08284
717.08284
717.08284
155.39236
717.08284
106.91247
106.91247
106.91247
717.08284
717.08284
717.08284
199.02089
717.08284
717.08284
717.08284
717.08284
363.89777
717.08284
717.08284
717.08284
342.63004
342.63004
717.08284
717.08284
717.08284
717.08284
717.08284
0
717.08284
717.08284
717.08284
717.08284
717.08284
717.08284
717.08284
717.08284
717.08284
0
0
0
0
0
0
0
0
0
0
0
0
0
0
0
0
0
0
0
0
0
0
0
0
0
0
0
0
222.06862
222.06862
222.06862
222.06862
222.06862
222.06862
222.06862
222.06862
222.06862
222.06862
222.06862
222.06862
222.06862
222.06862
222.06862
222.06862
222.06862
222.06862
222.06862
222.06862
222.06862
222.06862
222.06862
222.06862
222.06862
222.06862
222.06862
222.06862
222.06862
222.06862
222.06862
222.06862
0
0
0
0
0
0
0
0
0
0
0
0
222.06862
222.06862
222.06862
222.06862
222.06862
222.06862
222.06862
222.06862
222.06862
222.06862
222.06862
221.31147
222.06862
222.06862
222.06862
222.06862
0
0
0
0
0
0
0
0
0
0
0
0
0
0
0
0
0
0
0
0
0
0
0
0
0
0
0
0
0
0
0
0
0
0
0
0
0
0
0
0
0
0
0
0
0
0
0
0
0
0
0
0
0
0
0
0
0
0
0
0
0
0
0
0
0
0
0
0
0
0
0
0
0
0
0
0
0
0
0
0
0
0
0
0
0
0
0
0
0
0
0
0
0
0
0
0
0
0
0
0
0
0
0
0
0
0
0
0
0
0
0
0
0
0
0
0
0
0
0
0
0
0
0
0
0
0
0
0
0
0
0
0
0
0
0
0
0
0
0
0
0
0
0
0
0
0
0
0
0
0
222.06862
222.06862
222.06862
222.06862
0
0
0
0
0
0
0
0
0
0
0
0
0
0
0
0
0
0
0
0
0
0
0
0
0
0
0
0
0
0
0
0
0
0
222.06862
222.06862
222.06862
222.06862
222.06862
222.06862
222.06862
222.06862
222.06862
222.06862
222.06862
222.06862
222.06862
222.06862
222.06862
0
0
0
0
0
222.06862
222.06862
222.06862
222.06862
222.06862
222.06862
222.06862
222.06862
222.06862
222.06862
222.06862
222.06862
222.06862
222.06862
222.06862
0
0
0
0
0
222.06862
222.06862
222.06862
222.06862
222.06862
222.06862
222.06862
222.06862
222.06862
222.06862
222.06862
222.06862
222.06862
222.06862
222.06862
222.06862
222.06862
222.06862
222.06862
222.06862
222.06862
222.06862
0
0
0
0
0
0
0
0
0
0
0
0
0
0
0
0
0
0
0
0
0
0
222.06862
222.06862
222.06862
222.06862
222.06862
222.06862
222.06862
222.06862
222.06862
222.06862
222.06862
222.06862
222.06862
222.06862
222.06862
222.06862
222.06862
222.06862
222.06862
222.06862
222.06862
222.06862
222.06862
222.06862
222.06862
222.06862
222.06862
222.06862
222.06862
222.06862
222.06862
222.06862
222.06862
222.06862
222.06862
222.06862
222.06862
222.06862
222.06862
222.06862
222.06862
222.06862
222.06862
222.06862
222.06862
222.06862
222.06862
222.06862
222.06862
222.06862
222.06862
222.06862
222.06862
222.06862
222.06862
222.06862
222.06862
222.06862
222.06862
222.06862
222.06862
222.06862
222.06862
222.06862
222.06862
222.06862
222.06862
0
222.06862
222.06862
222.06862
222.06862
222.06862
222.06862
222.06862
222.06862
222.06862
222.06862
222.06862
222.06862
222.06862
222.06862
222.06862
222.06862
222.06862
222.06862
222.06862
222.06862
222.06862
222.06862
222.06862
222.06862
222.06862
222.06862
222.06862
222.06862
222.06862
222.06862
222.06862
0
222.06862
222.06862
222.06862
222.06862
222.06862
222.06862
222.06862
222.06862
222.06862
222.06862
222.06862
222.06862
222.06862
222.06862
222.06862
222.06862
222.06862
222.06862
222.06862
222.06862
222.06862
222.06862
222.06862
222.06862
0
0
0
0
0
0
0
0
0
0
0
0
0
0
0
0
0
0
0
0
0
0
222.06862
222.06862
222.06862
222.06862
222.06862
222.06862
222.06862
222.06862
222.06862
222.06862
222.06862
222.06862
222.06862
222.06862
222.06862
222.06862
222.06862
222.06862
222.06862
222.06862
222.06862
222.06862
222.06862
222.06862
222.06862
222.06862
222.06862
222.06862
222.06862
222.06862
222.06862
222.06862
222.06862
222.06862
222.06862
222.06862
222.06862
222.06862
222.06862
222.06862
222.06862
222.06862
222.06862
222.06862
222.06862
222.06862
222.06862
0
645.33247
192.49045
57.053128
0
97.212791
688.13776
0
432.77878
420.13906
0
217.70471
44.700097
90.045773
0
0
232.23418
181.14919
175.20159
731.38351
681.23959
705.53499
703.31162
1.3124545
0
0
535.70148
0
0
0
0
0
0
0
0
0
0
0
500.36026
662.05158
500.04427
659.58062
0
7.9505388
272.3555
246.09492
15.230795
653.30125
265.2543
119.3519
152.91787
56.666015
0
6.2478384
0
40.607371
0
0
0
0
0
0
0
0
0
0
0
64.684084
0
0
0
0
291.7871
186.96874
92.253078
126.21259
153.52096
266.92006
301.12884
333.33542
231.37837
726.38773
721.25257
723.20985
691.05208
687.21054
597.42044
617.79379
716.94843
362.78618
56.839678
56.980849
4.1562685
117.84972
128.98333
267.34499
196.96705
51.065163
0
0
0
27.570456
0
0
64.422365
0
633.08504
560.65733
27.917956
0
487.71291
0
0
0
509.67664
421.04701
384.73125
453.00108
247.74773
418.12336
0
0
54.560196
0
226.8641
0
0
0
299.50684
230.06976
219.67756
141.68914
224.3106
178.27997
56.668939
556.18304
287.66404
374.9025
60.743869
8.4377614
0
0
81.203338
193.36005
107.32016
252.22429
191.6648
127.60786
172.50669
171.68754
82.8774
34.129148
364.04219
0
0
0
122.93575
127.51865
194.11042
0
0
0
0
82.550689
0
0
200.9814
45.086008
0
138.6481
130.52814
0
0
0
518.4467
427.89249
406.70842
4.4482731
103.33812
71.572231
500.10281
83.596523
61.799358
144.14563
159.65198
70.303596
158.33053
106.61302
50.293525
131.28178
6.0033822
131.48068
153.39512
108.6565
13.770805
44.236875
0
0
0
0
0
0
225.90317
239.06921
513.13907
454.4885
0
0
556.67974
448.15933
490.83087
467.00799
215.07395
136.52439
249.7747
0
125.00988
116.99225
186.00551
102.29365
13.968576
67.619116
45.704451
47.959991
0
0
76.85975
0
0
0
0
0
0
204.01197
0
0
0
191.33563
95.583759
181.13666
157.8529
0
0
0
116.80103
394.19361
428.12685
291.73334
383.48937
327.32812
383.44111
668.37012
539.98618
750.39745
559.42629
554.53622
561.12983
743.83951
370.39766
309.57997
251.37472
57.835023
5.6505252
488.68592
82.192483
206.77616
19.902778
56.582237
41.320167
151.66609
106.57616
143.74859
11.428872
154.16139
42.488834
4.3768247
1.0733608
27.501384
93.400618
0
0
0
0
217.95134
240.18796
300.78527
276.61332
403.33692
298.37662
241.05693
129.97743
0
0
50.20555
0
87.23968
124.72879
0
113.21471
0
380.54229
0
0
0
0
0
225.72466
215.08762
305.8392
194.45011
286.54321
290.59101
583.06217
527.66344
593.16443
513.27818
241.44542
310.66658
302.11358
444.65772
349.0837
329.12466
463.95878
380.55568
337.55862
0
0
0
0
0
0
0
148.03796
148.70379
0
259.97397
0
0
105.09707
82.877979
184.4641
73.0743
25.606025
41.070404
17.551173
140.22382
78.796947
109.82332
630.25127
510.48613
487.47492
409.26642
427.88281
437.02362
391.40525
346.58747
18.531718
21.857002
43.411225
22.551452
28.305437
94.465671
62.216507
296.79447
52.102665
83.392713
16.320602
175.53014
165.65514
72.541182
5.4904434
21.851263
28.496645
173.69286
208.04416
113.79375
233.58779
262.79885
157.62616
131.86268
59.851269
28.250143
335.09528
313.06143
248.02417
)


1227
(
0
0
0
0
0
0
0
0
0
0
0
0
0
159.13323
0
0
0
0
0
0
0
0
0
0
585.76158
585.76158
585.76158
585.76158
0
0
0
0
585.76158
585.76158
585.76158
585.76158
0
0
0
585.76158
0
0
585.76158
585.76158
0
0
0
0
0
0
0
0
0
0
0
0
0
0
65.390027
585.76158
585.76158
0
585.76158
65.390027
585.76158
585.76158
0
0
0
0
0
0
0
0
0
0
0
0
0
0
0
0
585.76158
585.76158
0
0
0
0
64.569841
65.390027
585.76158
585.76158
0
0
566.74579
0
0
0
0
0
0
0
0
0
0
0
0
585.76158
133.13997
0
0
0
0
0
0
0
65.390027
159.13323
159.13323
0
0
0
585.76158
133.13997
585.76158
65.390027
65.390027
392.83032
566.74579
585.76158
585.76158
0
0
0
0
0
0
0
0
0
0
0
0
0
0
0
0
0
0
0
0
585.76158
0
0
0
0
0
0
585.76158
0
0
0
0
0
0
0
0
0
0
0
159.13323
585.76158
585.76158
0
0
0
0
0
0
0
585.76158
585.76158
0
0
0
585.76158
585.76158
585.76158
585.76158
585.76158
585.76158
585.76158
585.76158
585.76158
585.76158
585.76158
585.76158
585.76158
585.76158
585.76158
585.76158
585.76158
585.76158
585.76158
585.76158
585.76158
585.76158
585.76158
585.76158
0
0
0
0
0
0
0
0
0
0
0
0
0
0
0
0
0
0
0
0
0
0
0
0
0
0
0
365.89242
365.89242
65.390027
0
0
0
585.76158
585.76158
585.76158
0
566.74579
0
0
0
0
0
0
0
0
0
0
64.569841
64.569841
64.569841
0
0
0
0
0
0
0
0
0
215.14965
215.14965
585.76158
133.13997
133.13997
133.13997
585.76158
585.76158
585.76158
585.76158
585.76158
585.76158
585.76158
585.76158
585.76158
585.76158
585.76158
585.76158
585.76158
585.76158
0
0
0
0
0
0
0
0
0
0
0
0
0
0
0
0
0
0
0
0
0
0
0
0
0
0
0
0
169.66998
169.66998
169.66998
169.66998
169.66998
169.66998
169.66998
169.66998
169.66998
169.66998
169.66998
169.66998
169.66998
169.66998
169.66998
169.66998
169.66998
169.66998
169.66998
169.66998
169.66998
169.66998
169.66998
169.66998
169.66998
169.66998
169.66998
169.66998
169.66998
169.66998
169.66998
169.66998
0
0
0
0
0
0
0
0
0
0
0
0
169.66998
169.66998
169.66998
169.66998
169.66998
169.66998
169.66998
169.66998
169.66998
169.66998
169.66998
168.99907
169.66998
169.66998
169.66998
169.66998
0
0
0
0
0
0
0
0
0
0
0
0
0
0
0
0
0
0
0
0
0
0
0
0
0
0
0
0
0
0
0
0
0
0
0
0
0
0
0
0
0
0
0
0
0
0
0
0
0
0
0
0
0
0
0
0
0
0
0
0
0
0
0
0
0
0
0
0
0
0
0
0
0
0
0
0
0
0
0
0
0
0
0
0
0
0
0
0
0
0
0
0
0
0
0
0
0
0
0
0
0
0
0
0
0
0
0
0
0
0
0
0
0
0
0
0
0
0
0
0
0
0
0
0
0
0
0
0
0
0
0
0
0
0
0
0
0
0
0
0
0
0
0
0
0
0
0
0
0
0
169.66998
169.66998
169.66998
169.66998
0
0
0
0
0
0
0
0
0
0
0
0
0
0
0
0
0
0
0
0
0
0
0
0
0
0
0
0
0
0
0
0
0
0
169.66998
169.66998
169.66998
169.66998
169.66998
169.66998
169.66998
169.66998
169.66998
169.66998
169.66998
169.66998
169.66998
169.66998
169.66998
0
0
0
0
0
169.66998
169.66998
169.66998
169.66998
169.66998
169.66998
169.66998
169.66998
169.66998
169.66998
169.66998
169.66998
169.66998
169.66998
169.66998
0
0
0
0
0
169.66998
169.66998
169.66998
169.66998
169.66998
169.66998
169.66998
169.66998
169.66998
169.66998
169.66998
169.66998
169.66998
169.66998
169.66998
169.66998
169.66998
169.66998
169.66998
169.66998
169.66998
169.66998
0
0
0
0
0
0
0
0
0
0
0
0
0
0
0
0
0
0
0
0
0
0
169.66998
169.66998
169.66998
169.66998
169.66998
169.66998
169.66998
169.66998
169.66998
169.66998
169.66998
169.66998
169.66998
169.66998
169.66998
169.66998
169.66998
169.66998
169.66998
169.66998
169.66998
169.66998
169.66998
169.66998
169.66998
169.66998
169.66998
169.66998
169.66998
169.66998
169.66998
169.66998
169.66998
169.66998
169.66998
169.66998
169.66998
169.66998
169.66998
169.66998
169.66998
169.66998
169.66998
169.66998
169.66998
169.66998
169.66998
169.66998
169.66998
169.66998
169.66998
169.66998
169.66998
169.66998
169.66998
169.66998
169.66998
169.66998
169.66998
169.66998
169.66998
169.66998
169.66998
169.66998
169.66998
169.66998
169.66998
0
169.66998
169.66998
169.66998
169.66998
169.66998
169.66998
169.66998
169.66998
169.66998
169.66998
169.66998
169.66998
169.66998
169.66998
169.66998
169.66998
169.66998
169.66998
169.66998
169.66998
169.66998
169.66998
169.66998
169.66998
169.66998
169.66998
169.66998
169.66998
169.66998
169.66998
169.66998
0
169.66998
169.66998
169.66998
169.66998
169.66998
169.66998
169.66998
169.66998
169.66998
169.66998
169.66998
169.66998
169.66998
169.66998
169.66998
169.66998
169.66998
169.66998
169.66998
169.66998
169.66998
169.66998
169.66998
169.66998
0
0
0
0
0
0
0
0
0
0
0
0
0
0
0
0
0
0
0
0
0
0
169.66998
169.66998
169.66998
169.66998
169.66998
169.66998
169.66998
169.66998
169.66998
169.66998
169.66998
169.66998
169.66998
169.66998
169.66998
169.66998
169.66998
169.66998
169.66998
169.66998
169.66998
169.66998
169.66998
169.66998
169.66998
169.66998
169.66998
169.66998
169.66998
169.66998
169.66998
169.66998
169.66998
169.66998
169.66998
169.66998
169.66998
169.66998
169.66998
169.66998
169.66998
169.66998
169.66998
169.66998
169.66998
169.66998
169.66998
0
507.00059
241.3447
1.604664
0
41.354403
531.19416
0
373.3535
324.47425
0
37.356728
0
0
0
0
0
0
0
597.36146
521.65112
575.393
543.23436
0
0
0
496.92041
0
0
0
0
0
0
0
0
0
0
0
425.23231
556.67208
466.01964
580.31238
0
0
0
0
0
481.84917
73.720348
0
0
0
0
0
0
0
0
0
0
0
0
0
0
0
0
0
0
0
0
0
0
0
0
0
0
0
0
0
0
0
0
568.06992
607.27026
630.38799
596.26777
632.61499
557.57397
603.266
621.58291
0
0
0
0
0
0
0
0
0
0
0
0
49.950886
0
12.824493
0
0
446.11305
361.53381
27.062445
0
331.79
0
0
0
345.35078
284.26861
226.88067
276.59449
118.07671
304.28027
0
0
0
0
0
0
0
0
264.9026
213.10431
217.09193
155.73796
0
0
0
355.49483
90.908995
175.9647
0
0
0
0
0
5.1227268
0
63.958676
14.72443
22.732537
192.31414
0
127.21551
63.218013
200.69696
0
0
0
89.211776
56.608485
144.77616
0
0
0
0
0
0
0
172.32514
6.2812777
0
0
0
0
0
0
521.90933
200.70997
0
0
0
138.20389
537.03784
0
0
100.88172
99.84469
69.010539
84.430617
98.818922
55.308829
109.32439
3.9280504
68.497219
127.4833
51.027348
27.755639
12.907124
0
0
0
0
0
0
133.45751
128.80963
385.25873
422.55873
0
0
550.00857
494.11384
487.89598
363.98377
199.65462
137.04395
146.80158
0
0
122.03561
176.2746
0
0
0
0
67.098527
0
0
0
0
0
0
0
0
0
136.38882
0
0
0
147.06793
73.00301
104.38745
105.60418
0
0
0
0
0
0
0
0
0
185.64635
633.33555
563.58786
622.44722
421.72659
379.51324
567.44314
641.55049
423.74519
0
320.6874
97.412243
75.974557
0
0
0
0
0
0
0
65.209034
54.622629
0.92104827
59.990594
32.525459
20.215826
40.21109
10.231398
56.732029
0
0
0
0
139.3448
197.57162
247.62965
187.06094
384.64767
334.64466
252.5029
155.74761
0
0
0
0
0
50.112665
0
38.033997
0
241.60899
0
0
0
0
0
69.038589
91.466409
123.49543
38.187962
154.08277
148.76934
474.15683
430.50582
512.30972
440.18179
202.89121
141.33785
252.05542
363.81945
286.68246
231.21654
400.03321
364.73712
277.72694
0
0
0
0
0
0
0
0
0
0
249.28588
0
0
138.18288
107.67565
0
0
0
0
0
0
0
0
437.45966
316.12182
299.60983
209.10397
239.96398
258.93621
188.77241
150.70684
0
0
0
0
0
0
0
115.69957
0
0
0
21.911867
0
0
0
0
0
57.334213
118.14653
0
107.27935
162.59853
33.659053
0
99.913607
53.023626
208.97497
176.72667
83.32231
)


1227
(
536.2201
0
0
0
0
497.20973
497.20973
0
0
0
0
0
0
387.3342
0
0
0
0
0
0
0
0
0
0
536.2201
536.2201
536.2201
536.2201
0
0
0
0
536.2201
536.2201
536.2201
536.2201
0
0
0
536.2201
0
0
0
0
0
0
0
0
0
0
0
0
0
0
0
0
0
0
0
536.2201
536.2201
0
0
0
0
0
0
0
0
0
0
0
0
0
0
0
0
0
0
0
0
0
536.2201
0
536.2201
536.2201
0
0
0
0
0
0
0
0
0
0
0
0
0
0
0
0
0
0
0
0
0
0
0
0
0
0
0
0
0
0
0
536.2201
536.2201
0
0
0
0
0
0
0
0
0
0
0
0
0
0
0
0
0
0
536.2201
536.2201
536.2201
0
536.2201
536.2201
0
0
0
0
0
0
536.2201
536.2201
536.2201
0
0
0
536.2201
536.2201
0
536.2201
0
0
0
0
0
0
0
0
0
0
0
387.3342
0
0
0
0
0
0
0
0
0
536.2201
536.2201
0
536.2201
536.2201
536.2201
536.2201
536.2201
536.2201
536.2201
536.2201
536.2201
536.2201
536.2201
536.2201
536.2201
536.2201
536.2201
536.2201
536.2201
536.2201
536.2201
536.2201
536.2201
536.2201
536.2201
536.2201
536.2201
536.2201
0
0
0
0
0
0
0
0
0
0
0
0
0
0
0
0
0
0
0
0
0
0
0
0
0
0
0
238.96462
238.96462
0
0
0
0
0
0
0
0
0
0
0
0
0
0
0
0
0
0
0
0
0
0
0
0
0
0
0
0
0
0
0
0
0
0
0
0
0
536.2201
536.2201
536.2201
536.2201
536.2201
0
0
0
536.2201
0
0
536.2201
536.2201
536.2201
0
0
0
0
0
0
0
0
0
0
0
0
0
0
0
0
0
0
0
0
0
0
0
0
0
0
0
0
129.78276
129.78276
129.78276
129.78276
129.78276
129.78276
129.78276
129.78276
129.78276
129.78276
129.78276
129.78276
129.78276
129.78276
129.78276
129.78276
129.78276
129.78276
129.78276
129.78276
129.78276
129.78276
129.78276
129.78276
129.78276
129.78276
129.78276
129.78276
129.78276
129.78276
129.78276
129.78276
0
0
0
0
0
0
0
0
0
0
0
0
129.78276
129.78276
129.78276
129.78276
129.78276
129.78276
129.78276
129.78276
129.78276
129.78276
129.78276
129.11249
129.78276
129.78276
129.78276
129.78276
0
0
0
0
0
0
0
0
0
0
0
0
0
0
0
0
0
0
0
0
0
0
0
0
0
0
0
0
0
0
0
0
0
0
0
0
0
0
0
0
0
0
0
0
0
0
0
0
0
0
0
0
0
0
0
0
0
0
0
0
0
0
0
0
0
0
0
0
0
0
0
0
0
0
0
0
0
0
0
0
0
0
0
0
0
0
0
0
0
0
0
0
0
0
0
0
0
0
0
0
0
0
0
0
0
0
0
0
0
0
0
0
0
0
0
0
0
0
0
0
0
0
0
0
0
0
0
0
0
0
0
0
0
0
0
0
0
0
0
0
0
0
0
0
0
0
0
0
0
0
129.78276
129.78276
129.78276
129.78276
0
0
0
0
0
0
0
0
0
0
0
0
0
0
0
0
0
0
0
0
0
0
0
0
0
0
0
0
0
0
0
0
0
0
129.78276
129.78276
129.78276
129.78276
129.78276
129.78276
129.78276
129.78276
129.78276
129.78276
129.78276
129.78276
129.78276
129.78276
129.78276
0
0
0
0
0
129.78276
129.78276
129.78276
129.78276
129.78276
129.78276
129.78276
129.78276
129.78276
129.78276
129.78276
129.78276
129.78276
129.78276
129.78276
0
0
0
0
0
129.78276
129.78276
129.78276
129.78276
129.78276
129.78276
129.78276
129.78276
129.78276
129.78276
129.78276
129.78276
129.78276
129.78276
129.78276
129.78276
129.78276
129.78276
129.78276
129.78276
129.78276
129.78276
0
0
0
0
0
0
0
0
0
0
0
0
0
0
0
0
0
0
0
0
0
0
129.78276
129.78276
129.78276
129.78276
129.78276
129.78276
129.78276
129.78276
129.78276
129.78276
129.78276
129.78276
129.78276
129.78276
129.78276
129.78276
129.78276
129.78276
129.78276
129.78276
129.78276
129.78276
129.78276
129.78276
129.78276
129.78276
129.78276
129.78276
129.78276
129.78276
129.78276
129.78276
129.78276
129.78276
129.78276
129.78276
129.78276
129.78276
129.78276
129.78276
129.78276
129.78276
129.78276
129.78276
129.78276
129.78276
129.78276
129.78276
129.78276
129.78276
129.78276
129.78276
129.78276
129.78276
129.78276
129.78276
129.78276
129.78276
129.78276
129.78276
129.78276
129.78276
129.78276
129.78276
129.78276
129.78276
129.78276
0
129.78276
129.78276
129.78276
129.78276
129.78276
129.78276
129.78276
129.78276
129.78276
129.78276
129.78276
129.78276
129.78276
129.78276
129.78276
129.78276
129.78276
129.78276
129.78276
129.78276
129.78276
129.78276
129.78276
129.78276
129.78276
129.78276
129.78276
129.78276
129.78276
129.78276
129.78276
0
129.78276
129.78276
129.78276
129.78276
129.78276
129.78276
129.78276
129.78276
129.78276
129.78276
129.78276
129.78276
129.78276
129.78276
129.78276
129.78276
129.78276
129.78276
129.78276
129.78276
129.78276
129.78276
129.78276
129.78276
0
0
0
0
0
0
0
0
0
0
0
0
0
0
0
0
0
0
0
0
0
0
129.78276
129.78276
129.78276
129.78276
129.78276
129.78276
129.78276
129.78276
129.78276
129.78276
129.78276
129.78276
129.78276
129.78276
129.78276
129.78276
129.78276
129.78276
129.78276
129.78276
129.78276
129.78276
129.78276
129.78276
129.78276
129.78276
129.78276
129.78276
129.78276
129.78276
129.78276
129.78276
129.78276
129.78276
129.78276
129.78276
129.78276
129.78276
129.78276
129.78276
129.78276
129.78276
129.78276
129.78276
129.78276
129.78276
129.78276
0
444.95374
320.86744
0
0
0
453.17794
65.905712
370.98356
284.70451
0
0
0
0
0
0
0
0
0
540.06416
432.51662
517.78794
456.93608
0
0
0
0
0
0
0
0
0
0
0
0
0
0
0
413.68926
529.18213
0
492.10177
0
0
0
0
0
385.63782
0
0
0
0
0
0
0
0
0
0
0
0
0
0
0
0
0
0
0
0
0
0
0
0
0
0
0
0
0
0
0
0
0
490.59617
575.3122
521.86991
486.65764
0
0
0
517.07299
0
0
0
0
0
0
0
0
0
0
0
7.4020133
87.324088
0
111.99565
18.021752
0
326.14235
222.59872
0
0
221.9057
0
0
0
243.66262
202.53893
119.23369
156.15993
0
0
0
0
0
0
0
0
0
0
0
0
0
0
0
0
0
216.62406
0
16.328
0
0
0
0
0
0
0
0
0
0
0
0
0
0
70.165509
0
0
0
81.067022
11.41646
128.50344
0
0
0
0
0
0
0
0
0
0
0
0
0
0
0
0
0
0
0
305.86039
222.87089
0
146.63524
0
0
0
0
0
0
0
0
0
0
0
0
0
0
0
0
0
0
0
0
0
0
0
0
0
0
0
0
0
321.38611
219.22817
164.27637
82.008373
0
0
0
0
0
0
0
0
0
0
0
0
0
0
0
0
0
0
0
0
0
0
0
0
0
0
0
0
0
0
0
0
0
0
0
0
0
0
577.43753
337.60778
259.8705
0
621.45925
0
0
0
154.69884
168.73793
0
0
0
0
278.51416
191.37084
0
0
0
0
0
0
0
0
0
0
0
0
0
0
0
0
0
0
419.29868
0
300.87225
206.97411
0
0
0
0
0
0
0
0
0
0
0
0
0
0
0
0
1.4954258
0
0
0
0
0
0
0
0
0
0
0
0
0
0
0
0
0
0
0
0
0
0
0
0
0
0
0
0
0
0
0
0
0
0
0
0
0
0
0
0
314.11732
181.3883
160.76397
52.002696
94.470108
123.02903
30.104716
3.2300879
0
0
0
0
0
0
0
0
0
0
0
0
0
0
0
0
0
0
0
0
0
0
0
0
0
0
0
0
0
)


1227
(
411.8157
411.8157
411.8157
411.8157
0
409.43485
411.8157
0
411.8157
411.8157
0
0
0
411.8157
0
0
0
0
0
411.8157
0
0
0
411.8157
411.8157
411.8157
411.8157
411.8157
0
0
0
0
411.8157
411.8157
411.8157
411.8157
0
0
0
411.8157
0
0
97.85925
0
0
0
411.8157
411.8157
0
0
411.8157
0
0
411.8157
0
0
0
411.8157
0
411.8157
411.8157
0
0
0
0
0
0
0
0
0
0
0
0
0
0
0
0
0
0
0
0
0
411.8157
97.85925
411.8157
411.8157
411.8157
0
0
0
0
0
0
0
0
0
0
411.8157
0
0
0
0
0
0
0
0
0
0
0
0
0
0
0
0
0
0
411.8157
411.8157
411.8157
0
0
0
0
0
0
0
0
0
0
0
0
0
0
0
0
0
0
411.8157
411.8157
411.8157
411.8157
411.8157
411.8157
0
0
0
0
0
0
411.8157
411.8157
411.8157
0
0
0
411.8157
411.8157
411.8157
411.8157
0
0
0
0
0
0
0
0
0
0
0
407.72569
0
0
0
0
0
0
0
0
0
411.8157
411.8157
411.8157
411.8157
411.8157
411.8157
411.8157
411.8157
411.8157
411.8157
411.8157
411.8157
411.8157
411.8157
411.8157
411.8157
411.8157
411.8157
411.8157
411.8157
411.8157
411.8157
411.8157
411.8157
411.8157
411.8157
411.8157
411.8157
411.8157
0
0
0
0
0
0
0
0
411.8157
0
0
0
0
411.8157
411.8157
411.8157
411.8157
0
411.15332
0
411.8157
0
0
0
411.8157
411.8157
0
411.8157
411.8157
0
0
0
0
0
0
0
0
0
0
0
0
0
0
0
0
0
0
0
0
0
0
0
0
0
0
0
0
411.8157
407.33477
407.33477
0
0
0
0
0
0
411.8157
411.8157
411.8157
411.8157
411.8157
97.85925
0
97.85925
0
0
0
411.8157
411.8157
411.8157
0
0
0
0
0
0
0
0
0
0
0
0
0
0
0
0
0
0
0
0
0
0
0
0
0
0
0
0
61.054291
61.054291
61.054291
61.054291
61.054291
61.054291
61.054291
61.054291
61.054291
61.054291
61.054291
61.054291
61.054291
61.054291
61.054291
61.054291
61.054291
61.054291
61.054291
61.054291
61.054291
61.054291
61.054291
61.054291
61.054291
61.054291
61.054291
61.054291
61.054291
61.054291
61.054291
61.054291
0
0
0
0
0
0
0
0
0
0
0
0
61.054291
61.054291
61.054291
61.054291
61.054291
61.054291
61.054291
61.054291
61.054291
61.054291
61.054291
60.481857
61.054291
61.054291
61.054291
61.054291
0
0
0
0
0
0
0
0
0
0
0
0
0
0
0
0
0
0
0
0
0
0
0
0
0
0
0
0
0
0
0
0
0
0
0
0
0
0
0
0
0
0
0
0
0
0
0
0
0
0
0
0
0
0
0
0
0
0
0
0
0
0
0
0
0
0
0
0
0
0
0
0
0
0
0
0
0
0
0
0
0
0
0
0
0
0
0
0
0
0
0
0
0
0
0
0
0
0
0
0
0
0
0
0
0
0
0
0
0
0
0
0
0
0
0
0
0
0
0
0
0
0
0
0
0
0
0
0
0
0
0
0
0
0
0
0
0
0
0
0
0
0
0
0
0
0
0
0
0
0
61.054291
61.054291
61.054291
61.054291
0
0
0
0
0
0
0
0
0
0
0
0
0
0
0
0
0
0
0
0
0
0
0
0
0
0
0
0
0
0
0
0
0
0
61.054291
61.054291
61.054291
61.054291
61.054291
61.054291
61.054291
61.054291
61.054291
61.054291
61.054291
61.054291
61.054291
61.054291
61.054291
0
0
0
0
0
61.054291
61.054291
61.054291
61.054291
61.054291
61.054291
61.054291
61.054291
61.054291
61.054291
61.054291
61.054291
61.054291
61.054291
61.054291
0
0
0
0
0
61.054291
61.054291
61.054291
61.054291
61.054291
61.054291
61.054291
61.054291
61.054291
61.054291
61.054291
61.054291
61.054291
61.054291
61.054291
61.054291
61.054291
61.054291
61.054291
61.054291
61.054291
61.054291
0
0
0
0
0
0
0
0
0
0
0
0
0
0
0
0
0
0
0
0
0
0
61.054291
61.054291
61.054291
61.054291
61.054291
61.054291
61.054291
61.054291
61.054291
61.054291
61.054291
61.054291
61.054291
61.054291
61.054291
61.054291
61.054291
61.054291
61.054291
61.054291
61.054291
61.054291
61.054291
61.054291
61.054291
61.054291
61.054291
61.054291
61.054291
61.054291
61.054291
61.054291
61.054291
61.054291
61.054291
61.054291
61.054291
61.054291
61.054291
61.054291
61.054291
61.054291
61.054291
61.054291
61.054291
61.054291
61.054291
61.054291
61.054291
61.054291
61.054291
61.054291
61.054291
61.054291
61.054291
61.054291
61.054291
61.054291
61.054291
61.054291
61.054291
61.054291
61.054291
61.054291
61.054291
61.054291
61.054291
0
61.054291
61.054291
61.054291
61.054291
61.054291
61.054291
61.054291
61.054291
61.054291
61.054291
61.054291
61.054291
61.054291
61.054291
61.054291
61.054291
61.054291
61.054291
61.054291
61.054291
61.054291
61.054291
61.054291
61.054291
61.054291
61.054291
61.054291
61.054291
61.054291
61.054291
61.054291
0
61.054291
61.054291
61.054291
61.054291
61.054291
61.054291
61.054291
61.054291
61.054291
61.054291
61.054291
61.054291
61.054291
61.054291
61.054291
61.054291
61.054291
61.054291
61.054291
61.054291
61.054291
61.054291
61.054291
61.054291
0
0
0
0
0
0
0
0
0
0
0
0
0
0
0
0
0
0
0
0
0
0
61.054291
61.054291
61.054291
61.054291
61.054291
61.054291
61.054291
61.054291
61.054291
61.054291
61.054291
61.054291
61.054291
61.054291
61.054291
61.054291
61.054291
61.054291
61.054291
61.054291
61.054291
61.054291
61.054291
61.054291
61.054291
61.054291
61.054291
61.054291
61.054291
61.054291
61.054291
61.054291
61.054291
61.054291
61.054291
61.054291
61.054291
61.054291
61.054291
61.054291
61.054291
61.054291
61.054291
61.054291
61.054291
61.054291
61.054291
0
0
358.55682
0
3.6202872
0
0
165.57785
322.53476
213.3439
0
0
0
0
0
0
0
0
0
0
0
0
0
414.53394
0
30.666415
0
0
0
0
0
0
0
0
0
0
0
0
349.24748
0
455.67527
0
0
0
0
0
0
0
0
0
0
0
0
0
0
0
0
0
0
0
0
0
0
0
0
0
0
0
0
0
0
0
0
0
0
0
0
0
0
0
0
0
0
0
0
0
0
0
0
0
0
0
0
0
0
0
0
418.94803
0
88.222444
62.219015
121.47654
55.403268
200.03849
77.193119
0
0
0
0
0
0
0
0
0
0
102.17396
5.533103
0
0
0
0
0
0
0
0
0
0
0
0
0
0
0
0
0
0
0
0
0
0
0
0
0
0
0
0
0
0
0
0
0
0
0
0
0
0
0
72.515086
0
104.78314
0
0
0
0
0
0
113.53165
0
0
0
215.79002
246.69863
0
0
0
0
0
0
1.7369938
374.85061
280.66266
0
254.12323
306.9551
0
0
0
0
0
0
0
0
0
0
0
0
0
0
0
0
0
0
0
0
0
0
0
0
0
0
0
524.97865
241.28356
216.13258
177.02595
17.636329
0
0
0
0
0
0
0
0
0
0
0
0
0
0
183.62947
0
131.4514
22.567885
0
0
0
0
0
0
0
0
0
0
0
300.87666
0
0
0
0
0
0
0
0
0
0
0
0
0
545.48972
540.8828
468.12209
197.41208
242.31213
0
429.83606
0
330.73415
358.13509
289.8448
451.47513
0
0
0
0
0
0
0
0
0
0
0
0
20.678229
0
0
0
0
398.7979
433.24837
312.45776
235.93574
0
0
0
0
0
0
0
0
0
0
0
0
0
0
0
0
0
0
0
0
0
0
0
0
0
0
0
0
0
0
0
0
0
0
0
0
0
0
0
0
0
0
0
0
0
0
0
0
0
0
0
0
0
0
0
0
0
0
0
0
0
0
0
0
0
0
0
0
0
0
0
0
0
0
0
0
0
0
0
0
0
0
0
0
0
0
0
0
0
0
0
0
0
0
)


1227
(
284.42858
284.42858
284.42858
284.42858
0
284.42858
284.42858
0
284.42858
284.42858
0
0
0
284.42858
284.42858
0
0
0
0
284.42858
0
0
0
284.42858
284.42858
284.42858
284.42858
284.42858
284.42858
284.42858
284.42858
284.42858
284.42858
284.42858
284.42858
284.42858
284.42858
284.42858
284.42858
284.42858
0
0
161.81955
0
284.42858
284.42858
284.42858
284.42858
284.42858
284.42858
284.42858
284.42858
284.42858
284.42858
284.42858
284.42858
284.42858
284.42858
284.42858
280.02444
283.78941
0
0
179.99417
0
0
0
0
284.42858
0
284.42858
284.42858
0
284.42858
284.42858
284.42858
0
0
284.42858
284.42858
284.42858
284.42858
280.02444
284.42858
284.42858
284.42858
284.42858
284.42858
169.80917
284.42858
0
0
0
0
0
284.42858
284.42858
284.42858
0
0
0
284.42858
284.42858
284.42858
284.42858
284.42858
284.42858
0
0
284.42858
284.42858
0
0
0
0
284.42858
284.42858
284.42858
284.42858
0
0
0
0
0
0
284.42858
179.99417
0
0
0
0
284.42858
284.42858
284.42858
0
0
284.42858
284.42858
284.42858
284.42858
284.42858
284.42858
284.42858
0
0
0
284.42858
284.42858
284.42858
284.42858
284.42858
284.42858
0
0
0
284.42858
284.42858
284.42858
284.42858
0
0
0
0
0
0
0
0
0
284.42858
284.42858
284.42858
0
0
0
0
0
0
0
0
0
284.42858
284.42858
284.42858
284.42858
284.42858
284.42858
284.42858
284.42858
284.42858
284.42858
284.42858
284.42858
284.42858
284.42858
284.42858
284.42858
284.42858
284.42858
0
0
284.42858
0
284.42858
0
0
284.42858
284.42858
284.42858
284.42858
0
0
0
0
0
0
284.42858
284.42858
284.42858
284.42858
284.42858
284.42858
284.42858
284.42858
284.42858
284.42858
284.42858
284.42858
284.42858
284.42858
284.42858
284.42858
284.42858
284.42858
284.42858
284.42858
284.42858
284.42858
284.42858
284.42858
0
0
0
0
0
0
0
0
0
0
0
0
284.42858
0
0
0
0
0
284.42858
284.42858
284.42858
0
0
0
284.42858
284.42858
284.42858
284.42858
284.42858
284.42858
0
0
0
0
0
0
284.42858
284.42858
0
0
284.42858
161.81955
0
161.81955
0
0
0
283.78941
283.78941
283.78941
13.053587
13.053587
13.053587
13.053587
13.053587
13.053587
13.053587
13.053587
13.053587
13.053587
13.053587
0
0
13.053587
12.589202
13.053587
13.053587
13.053587
13.053587
13.053587
13.053587
13.053587
13.053587
0
0
13.053587
13.053587
13.053587
0
0
0
0
0
0
0
0
0
0
0
0
0
0
0
0
0
0
0
0
0
0
0
0
0
0
0
0
0
0
0
0
13.053587
13.053587
13.053587
0
0
0
0
0
13.053587
13.053587
13.053587
13.053587
0
0
0
0
0
0
0
0
0
0
0
0
0
0
0
0
0
0
0
0
0
0
0
0
0
0
0
0
0
0
0
0
0
0
0
0
0
0
0
0
0
0
0
0
0
0
13.053587
13.053587
13.053587
13.053587
13.053587
0
0
0
0
13.053587
13.053587
13.053587
13.053587
13.053587
13.053587
13.053587
13.053587
13.053587
13.053587
0
13.053587
0
0
0
0
13.053587
13.053587
13.053587
13.053587
13.053587
13.053587
13.053587
13.053587
0
0
0