/*--------------------------------*- C++ -*----------------------------------*\
  =========                 |
  \\      /  F ield         | OpenFOAM: The Open Source CFD Toolbox
   \\    /   O peration     | Website:  https://openfoam.org
    \\  /    A nd           | Version:  8
     \\/     M anipulation  |
\*---------------------------------------------------------------------------*/
/*   Windows 32 and 64 bit porting by blueCAPE: http://www.bluecape.com.pt   *\
|  Based on Windows porting (2.0.x v4) by Symscape: http://www.symscape.com   |
\*---------------------------------------------------------------------------*/
FoamFile
{
    version     2.0;
    format      ascii;
    class       scalarListList;
    location    "constant/vegetation";
    object      F;
}
// * * * * * * * * * * * * * * * * * * * * * * * * * * * * * * * * * * * * * //


408
(

2310
(
0.019936203
0.0096258623
0.021359575
0.01249091
0.015484832
0.0086461713
0.0047986349
0.0017018638
0.0033696374
0.0047503962
0.0010072316
0.000385394
0.00027903548
0.00010175254
0.00012125119
8.5506597e-05
0.00020564237
0.00024361868
0.00017239901
0.00014456526
5.9387171e-05
9.0820954e-05
9.4450685e-05
7.2039169e-05
0.0001210797
7.3610964e-05
0.00011474176
5.1242687e-05
6.0902934e-05
0.00010373952
4.2732952e-05
7.7409819e-05
6.2714266e-05
8.6203214e-05
6.5189002e-05
8.736384e-05
9.6295942e-05
0.00016725834
0.00010825522
0.00013853872
0.00013683162
5.3890823e-05
3.5543138e-05
4.1347932e-05
3.9911355e-05
3.973493e-05
5.9597242e-05
3.9402901e-05
4.1563795e-05
4.3266575e-05
0.00011470506
0.0001563358
0.00013001314
0.0059889751
0.0085549475
0.0019030336
0.0018548897
0.00092432534
0.00078481377
0.00083493436
0.00037999058
0.0013893899
0.0045286557
0.00078074891
0.001851333
0.0072296017
0.0067470733
0.0015804716
0.0029913317
0.00071807808
0.0028863513
0.0015742318
0.0015643086
0.0031047998
0.0017763716
0.00084097128
0.0011204354
0.00060312097
0.00062137976
0.00051130682
0.00046728483
0.00054206384
0.0006052054
0.00072846908
0.00039180734
0.00061346082
0.00055745235
0.00030124329
0.00015521798
0.00010591501
0.00021087934
9.7878745e-05
0.00015232465
0.00010636326
0.00064324427
9.283783e-05
3.769708e-05
0.00010985655
6.7004838e-05
0.00014181085
5.4570688e-05
6.1568278e-05
8.9091335e-05
0.00016606269
0.00022901528
0.00015170882
7.911915e-05
0.0001517299
0.00010122081
0.00012877498
0.00012020171
9.884576e-05
0.00012826748
0.00013434437
0.00010388092
0.00014652988
0.00011579487
0.00010184827
0.00014200138
4.9324263e-05
5.2578408e-05
6.7137609e-05
6.0221544e-05
7.218237e-05
8.449838e-05
0.00010850555
7.6592015e-05
9.0790166e-05
0.00016370436
0.00077503362
0.00017384815
0.00012743534
0.0001382778
0.0001758654
0.00014481372
0.00013901948
0.00019895763
0.00012249118
0.0005109494
0.00065866154
0.00053050924
0.00049518332
0.00011417259
0.00011583978
9.6169481e-05
0.0001048859
6.4006209e-05
8.9224623e-05
0.00018800165
0.00020385661
0.0002403472
0.0012100498
0.00027440957
0.00019068166
0.00030088649
0.00025035314
0.00021810554
0.00026562757
0.00012073006
0.0002176287
0.00014154993
0.00011044028
8.3583203e-05
0.00014677568
0.00020636216
0.00016197044
0.00014234928
0.0001660501
0.00013255319
0.0001325254
0.0001243491
0.00014127286
0.00016280631
0.00015096874
0.00021583102
0.00020596926
0.00091680138
0.00094659177
0.00097202446
0.00017099273
0.00016091871
0.0001587345
0.0001371263
0.00014909479
0.00014744014
0.00017946624
0.00016241119
0.00016537022
0.00014090823
0.000150173
0.00015251677
0.00012340462
0.00010788047
0.00011617812
0.00010944385
0.0001238268
0.00011665055
0.00018428826
0.00020364697
0.00019884497
0.00022097589
0.00023248203
0.00021476475
0.00019496065
0.0002073391
0.00021246597
0.00022815879
0.00028976963
0.0002356168
0.00013101716
0.00012764184
0.0001391722
0.00017924589
0.0001962627
0.00016523871
0.00017493626
0.00017702037
0.00021232504
0.00018884097
0.00019168354
0.00017352917
0.00020550399
0.00025149141
0.00022412055
0.0001303829
0.00011919253
0.00012065604
0.00012760543
0.00011868956
0.00011843465
0.00010158066
0.00010270775
9.6412534e-05
0.0010969798
0.0011127391
0.00080059392
0.00098068635
0.00088556023
0.00014513565
0.00017423692
0.00015819543
0.00017335705
0.00017604406
0.00015479883
0.00012692612
0.0001311709
0.00013538244
0.00010290313
0.00010187067
0.00010934315
9.5342716e-05
9.9471563e-05
9.0755845e-05
0.00028179424
0.00027436591
0.00026714258
0.00024618687
0.00025438342
0.00013543765
0.00015466918
0.00014833037
0.00010009501
0.00011634525
0.00010507721
0.00018801369
0.00023397113
0.00020167684
0.00019152519
0.00024558307
0.00020400007
0.00014511686
0.00015961132
0.00014867152
0.00011430783
0.00010485672
0.00011316121
0.00013227331
8.6753835e-05
0.00010744172
0.00011480163
0.00010616915
0.00011464649
9.9349348e-05
9.6260579e-05
0.00010326864
5.4980615e-05
6.2718682e-05
6.460748e-05
5.9121348e-05
8.3487047e-05
7.9769833e-05
9.5043439e-05
8.5092141e-05
9.0522286e-05
0.00013578634
0.0001293848
0.00013848217
0.00010325486
0.0001099975
0.00011156486
0.00011498868
0.00012116998
0.00011388114
9.5367588e-05
0.00010897954
0.00010853998
0.00010533401
0.00011214648
0.00011381171
9.928777e-05
0.00010970831
0.00010672086
5.7374588e-05
7.0813224e-05
6.7473653e-05
6.7707934e-05
7.5927249e-05
7.0657611e-05
6.99653e-05
7.4694626e-05
7.7721259e-05
8.0907803e-05
8.0974907e-05
8.5836826e-05
0.00017785898
0.00017130887
0.00018422687
7.9002082e-05
8.9090832e-05
9.378523e-05
0.00019045225
0.00021330621
0.00019816141
0.00023318099
0.00022975685
0.00024735144
8.0855233e-05
0.00010112042
9.730815e-05
4.324047e-05
6.4013115e-05
4.6664417e-05
0.00012554118
0.00013433032
0.00012357749
0.00012590861
0.00014787373
0.000126418
0.00014830457
0.00012483224
0.00012673605
0.00010758776
0.00013556658
0.00011273321
0.00012389161
0.00012077437
0.00011659951
7.7984219e-05
8.0061392e-05
7.4139561e-05
8.2099384e-05
9.4226776e-05
8.6352857e-05
9.6852015e-05
8.5729025e-05
9.11717e-05
5.9879058e-05
0.00012436519
0.00011690527
0.00011121746
6.5127973e-05
0.0021801099
0.0029652267
0.0015653081
0.0029748957
0.0011610176
0.0077451712
0.026769991
0.0086324207
0.0046340467
0.0022149175
0.0086917349
3.9946886e-05
7.2193831e-05
3.6048648e-05
4.987648e-05
5.5537223e-05
0.00010796589
5.3835527e-05
5.9234529e-05
2.631307e-05
2.2510184e-05
5.1543442e-05
3.1286009e-05
4.6600223e-05
4.4204031e-05
6.5454553e-05
3.2509178e-05
3.6202834e-05
8.0881478e-05
5.5707181e-05
8.669241e-05
6.2692939e-05
0.00024341823
0.00018982462
7.6479202e-05
9.2076459e-05
0.00013803575
0.0001988951
8.5269141e-05
0.00015847878
4.8826511e-05
6.4358687e-05
2.9333791e-05
9.9555664e-05
0.00016528039
2.3535716e-05
4.4807092e-05
6.1307858e-05
1.7938054e-05
1.3988862e-05
6.1804316e-05
6.8699729e-05
0.0001351329
0.0001007102
3.7134758e-05
5.6629939e-05
2.4509667e-05
3.7332966e-05
3.3727873e-05
4.1943437e-05
4.0337521e-05
4.3816822e-05
7.1163894e-05
7.1397459e-05
4.9743333e-05
6.3256875e-05
0.00029968298
0.00023729097
0.00021857203
0.00022706015
6.873574e-05
9.6907047e-05
8.0343103e-05
0.00010523935
0.00011619899
0.00012047573
0.00016370156
0.00019483813
9.4653824e-05
0.00010925704
8.2395098e-05
7.8717261e-05
6.9084158e-05
7.1486853e-05
0.00018082891
0.00013221614
9.4417957e-05
0.00011911738
0.00014220401
0.00019481301
2.3153951e-06
5.4772326e-05
7.6985605e-05
0.00013106961
4.0690471e-05
2.7878736e-05
2.5497514e-05
2.7569814e-05
3.0528039e-05
2.0807418e-05
2.3174424e-05
4.9076736e-05
6.3119593e-05
5.614904e-05
0.00029003176
0.00026470344
8.6290475e-05
9.0742195e-05
0.00010255688
0.00016041194
0.00012268103
8.6339472e-05
9.5829353e-05
0.00014969473
0.0001332815
0.00019709094
8.1543185e-05
0.0016021968
0.0011116574
8.1212314e-05
0.0008912971
0.00057628572
0.00089800353
0.00061986356
0.0015757926
0.00028294808
0.0010505917
0.00012379026
0.0012965379
0.00026551981
9.8617104e-05
0.00089438361
0.00045981064
0.00080874642
0.0005703035
0.0015284639
0.00095451512
0.001499498
0.00047089802
0.0016878198
0.0015001774
0.00014831748
6.9071034e-05
7.4763328e-05
0.00033523441
0.00048473315
0.00060987638
0.00053114548
0.00029064168
0.00018409781
8.9607322e-05
0.00015717393
6.7174429e-05
7.2700584e-05
8.855522e-05
9.9738575e-05
9.2801705e-05
0.0003663901
0.00048806671
0.0006079812
0.00052657029
9.9943762e-05
0.0013894816
0.00097200847
0.00029227861
0.0003427363
0.001514644
0.00058476169
0.00051715075
0.00034089037
0.0013296442
0.00047649169
0.00060410062
0.00058797861
0.00024780213
0.0002094816
0.00017409547
9.4988626e-05
0.00016444677
0.00029871439
0.00068219864
0.00019108662
6.5948316e-05
8.819517e-05
7.7519155e-05
0.00089369567
0.00011742742
0.0001083767
8.3128684e-05
0.00078493424
0.00010295644
0.00013184723
0.00024750972
0.0014610011
0.0005825528
0.00050399268
0.00034090964
0.00040513914
0.00047243197
0.00060233305
0.0005827296
0.00011960887
0.00020454549
0.00020396669
0.0012932657
0.00037558973
0.00060389337
0.00059107599
0.00032415246
0.0010276899
0.00038647635
0.00061815647
0.0011946864
0.00083639328
0.00069578091
0.0010331154
0.00031503618
0.00063275378
0.0011991456
0.00083829593
0.00070814306
0.0002596736
0.00025159238
0.00049788372
0.00031087064
0.00038368609
0.00036007602
0.00045493262
0.00039791483
0.00043439712
0.00046595873
0.00041269349
0.00050925425
0.00055527962
0.00060202373
0.00059675986
0.00058744387
0.00051587437
0.00056967636
0.00055776754
0.00026653682
0.00025053518
0.00022757272
0.00014938431
0.00017690481
0.0002150409
0.0001647311
0.00019380864
0.00012615467
0.00010636718
7.7856592e-05
0.00011255918
9.8203093e-05
0.00013964272
0.00013369573
0.00011785806
0.00052809336
0.00039637696
0.00039840683
0.00043497885
0.00035915153
0.00044778738
0.00046379364
0.00042083395
0.00049628517
0.00054649505
0.00060032151
0.00059141311
0.00058268983
0.00050961382
0.00056266823
0.00055116605
0.0002559145
0.0014853974
0.00060109636
0.00050791545
0.0012589932
0.00029715194
0.00045617563
0.0002542954
0.00060998188
0.00055557057
0.0011908734
0.00016448204
0.00037067432
0.00043687001
0.00070395696
0.00053607499
0.0014449863
0.0013332264
0.00067097869
0.00043632168
0.0014471076
0.0013339259
0.00017827512
0.00019893138
8.2540233e-05
4.8159609e-05
6.1822602e-05
5.1964441e-05
7.8274576e-05
8.3642817e-05
6.2434096e-05
6.9588777e-05
9.8509003e-05
6.5187126e-05
9.6176482e-05
6.9544136e-05
9.9152994e-05
9.7317823e-05
0.001327454
0.00057373111
0.00058255981
0.00057330692
0.00055053376
0.00052267908
0.00055367051
0.0003857246
0.0003581137
0.00040265639
0.00043168851
0.00048704936
0.00044411216
0.00013992053
0.0001849007
0.00014182412
0.00025972089
0.00031858321
0.00027670239
0.00022270219
0.00018811999
0.00023959697
0.00056717818
0.00058009461
0.00056206445
0.00053695624
0.00045963339
0.00053335729
0.0004339884
0.00048831909
0.00040820579
0.00018961092
0.0002965743
0.00033857443
0.00032382321
0.00027695581
0.00024385978
0.00018364923
0.0002136138
0.00038987733
0.00027135657
0.00085903678
0.00093342494
0.00047223595
0.00045810979
0.00078912673
0.00053680811
0.0013398654
0.0010749979
0.0010978275
0.00081053712
0.00089868984
0.00076218807
0.00085972266
0.00094121589
0.00038168563
0.00044648852
0.0013432765
0.0010808817
0.0010983986
0.00081620735
0.0009047966
0.00077154351
0.00021485556
0.00036203454
0.00023167008
0.00031357709
0.00043855684
0.0003939006
7.3550212e-05
7.7443498e-05
0.00011570396
0.00011946853
0.00011272176
0.00011101348
8.9976172e-05
8.2055929e-05
9.6741203e-05
0.00010517045
0.00012316424
0.00012350137
0.00018204084
0.00017250782
0.00012463684
0.00014654456
0.00079833047
0.00054948416
0.00022380721
0.00018975088
0.00058362321
0.00040872213
0.00055191423
0.00035535103
0.00034709207
0.00021402104
0.00040126618
0.00032313552
0.00022396377
0.00033106909
0.00061303943
0.00041839634
0.00043290616
0.00059776877
0.00014328743
7.0582496e-05
3.4962905e-05
6.4324868e-05
8.1839732e-05
0.00011435081
0.00011565815
0.00030099141
0.00030751233
0.00032976377
8.6306402e-05
0.0001711004
0.00013549169
0.00010064762
0.00011771449
0.0001182389
0.00031979635
0.00037595048
0.00035246689
0.00024900556
0.00028599307
0.00026607134
9.2565089e-05
0.00011458553
0.00011261911
8.8979626e-05
0.00010488841
0.00010863254
7.3657874e-05
0.00035564284
0.00065416597
0.0012867163
0.00062507182
0.0012889575
0.00024175022
4.4377839e-05
3.0323813e-05
3.2801513e-05
5.5692348e-05
3.7648625e-05
3.5262589e-05
5.922492e-05
3.9890895e-05
4.1915579e-05
6.8852672e-05
4.5949853e-05
4.6400838e-05
6.7360684e-05
4.501477e-05
4.3648474e-05
6.8739396e-05
4.5759388e-05
4.6337917e-05
6.7249486e-05
4.470423e-05
0.00032116741
0.00013919898
0.00016090551
0.00014066718
0.00078895636
0.00056833935
0.00067588002
0.0011976132
0.0010617447
0.0009930521
0.00079237411
0.00054675309
0.00035210397
0.00039621681
0.00037845526
0.0012016038
0.001063622
0.00099671204
0.0002951045
0.0002848085
0.0003522484
0.00032551991
0.00031210356
0.00029930112
0.00013747839
0.00016558663
0.00013347632
0.00012175151
0.00015775873
0.00012742926
7.0889611e-05
8.3508873e-05
0.00011913727
0.00011581271
9.0794298e-05
9.7878399e-05
0.00014647267
0.00017616648
0.00018264557
0.0006829614
0.00018615794
0.00040326648
0.00038363468
0.00025132257
0.00028567639
0.00034003731
0.00046523387
0.00054282206
0.0069097613
0.018111971
0.0057083262
0.0017222588
0.001612069
0.0005012794
0.0014451828
8.0927794e-06
1.5986502e-05
1.0857326e-05
1.5484958e-05
2.2253903e-05
8.6868369e-06
1.9802744e-05
0.00029111598
2.9970457e-05
0.00034288548
0.00017361862
1.7730898e-05
0.00019984367
1.2073647e-05
1.7151207e-05
2.6515431e-05
1.3267933e-05
1.3839506e-05
3.9511895e-05
3.0035991e-05
1.2722722e-05
1.4157677e-05
4.0910907e-05
5.8339002e-05
8.4944341e-05
6.4654184e-05
9.1708114e-05
2.5091743e-05
1.0255651e-05
1.7666999e-05
0.00028053801
8.4306156e-05
6.8356418e-05
4.0041658e-05
4.2352345e-05
6.3895814e-05
9.0573932e-05
0.00013718398
1.5918159e-05
1.684946e-05
2.123368e-05
1.6106479e-05
0.00012042004
4.2896861e-05
1.8758772e-05
2.8909487e-05
2.8175869e-05
1.1463098e-05
1.5796878e-05
3.1149655e-05
0.00015389332
2.1494743e-05
3.5770309e-05
4.6621967e-05
4.2565278e-05
5.2281683e-05
6.7872867e-05
7.8008333e-05
6.1326425e-05
7.1197612e-05
8.6546407e-05
9.8005357e-05
1.6431284e-05
1.199187e-05
1.4944844e-05
3.4077076e-05
3.5477283e-05
0.00013204894
1.3972824e-05
1.377983e-05
2.3552083e-05
3.1255221e-05
1.2667161e-05
1.4393401e-05
7.793464e-05
6.7033822e-05
7.2475227e-05
5.9588184e-05
3.8765339e-05
5.0863954e-05
5.7839646e-05
6.8046067e-05
9.6364872e-05
7.1541159e-05
1.5233214e-05
1.9551878e-05
3.47536e-05
3.2465231e-05
2.0984446e-05
2.1842573e-05
2.856523e-05
2.3957146e-05
1.8244222e-05
1.7807151e-05
1.65551e-05
1.7213707e-05
3.8971372e-05
4.6845525e-05
1.516728e-05
2.1836107e-05
1.918094e-05
2.1028569e-05
1.6166845e-05
1.782946e-05
1.6283784e-05
2.9848199e-05
2.6334872e-05
1.1756713e-05
0.00012756818
5.0155157e-06
2.7524593e-05
4.8686324e-05
7.4391861e-05
5.4904961e-05
8.0688672e-05
4.0635092e-05
1.6025526e-05
2.7679892e-05
6.1144203e-05
5.7601421e-05
4.6633522e-05
5.2760545e-05
7.6234833e-05
1.7676723e-05
3.0779321e-05
2.4559185e-05
2.7171598e-05
1.8438513e-05
1.6302093e-05
4.491802e-05
1.7474132e-05
1.8970458e-05
1.604644e-05
2.3598108e-05
2.0999101e-05
0.02356549
0.0077199308
0.0033132401
0.0057308725
0.0016947563
0.0038368717
0.0095244007
0.0053588756
0.0020466155
0.0035267749
0.0010922791
0.00076005658
0.00030409104
0.00015346001
0.00013654855
0.00021257164
0.0002340901
0.00011902332
0.00011757649
0.00012216046
0.00012387473
9.9822575e-05
9.6751188e-05
0.00010857102
0.0001112043
0.00013357638
0.00013152818
0.00014152687
0.00013880664
0.00010957375
0.0001294577
0.00014220275
0.00013478222
0.00013630919
0.00019377585
0.00021121396
0.0001887611
0.00017538732
0.00017108182
0.00018360026
0.00012006848
0.00012331429
0.000160346
0.00015096728
0.00015628587
0.00016639681
0.00020423985
0.00018800571
8.4586198e-05
8.305352e-05
6.7051454e-05
8.4379512e-05
8.0477502e-05
7.7413077e-05
8.1947377e-05
7.5612924e-05
6.9557138e-05
0.00011792591
0.00013540302
0.00011401793
0.0001303738
7.5967926e-05
0.00016568594
0.00010619476
0.00018474909
0.00024414297
0.00026336741
0.00010084906
9.8115259e-05
0.00015011174
0.0001418737
0.00016319193
0.00010115449
0.00015243696
0.000103097
0.00016285474
0.00014193544
8.8284674e-05
8.0847458e-05
0.00012266408
0.00015578962
0.00013168005
0.00013646141
0.00018166136
0.0002134161
0.0001679938
0.00023771896
0.00022754826
0.00025563843
8.4413885e-05
8.389023e-05
0.00020750616
0.00016486403
0.00015435136
0.00018933189
9.0584794e-05
9.6567069e-05
0.00012678856
0.00013843434
0.00016249414
0.0001364423
0.0001501725
0.00018275952
8.3756121e-05
8.258966e-05
7.9090039e-05
8.0613243e-05
7.3711562e-05
7.1711038e-05
0.00012359673
0.00012915908
0.00011934622
0.0001249339
0.00012454058
0.00014738738
0.00017178714
0.00012913052
0.00012439134
0.00020437105
0.00019165406
0.00022430477
0.00025566608
0.00027664971
0.00010027624
0.00012013178
9.9363847e-05
0.00011576336
0.00022068244
0.00019992011
0.00017018164
0.00019255668
0.0001013816
0.00012106212
0.00012648995
0.00010184418
8.5883331e-05
0.00010283884
8.3399314e-05
9.2757021e-05
0.00010576787
9.4765511e-05
0.00011362013
0.0001352909
0.00014770763
0.00012910552
0.00014497866
0.00014503843
0.00015882835
0.00015517736
0.00013688826
0.00015568086
0.00014869994
0.00011849736
0.00011315461
0.00014819748
0.00014919339
0.00012690762
0.00014016745
0.00013054423
0.00014274253
0.00020035571
0.00017628267
0.00021913746
0.00022837247
0.00024484651
0.00019365062
0.00020170722
0.00017939484
0.00016169384
0.00015820787
0.00016642338
0.00019566975
0.00017810679
0.00011666624
0.00013082759
0.00012634731
0.00013472955
0.00015426044
0.00016926364
0.00014557667
0.00014114904
0.00014574711
0.00016146403
0.0001760419
0.00017234374
0.00021398587
0.0002070864
0.00017761397
0.00018509381
0.00019859308
0.00022014049
0.00017162781
0.0001834012
0.00023534626
0.0032343876
0.013075083
0.013905567
0.012308946
0.0011111995
0.0048364376
0.0073159131
0.0037655987
0.0014326572
0.0035489215
0.0017664336
0.00094519927
0.0024293517
0.00063988093
2.6597885e-05
2.3133741e-05
1.0920208e-05
1.2333106e-05
1.7723189e-05
2.0204395e-05
1.5627102e-05
1.386701e-05
1.7546261e-05
0.00039749396
1.7437613e-05
1.1558955e-05
4.3054283e-05
0.00036968565
1.9555337e-05
0.00019695545
3.7103755e-05
1.9434984e-05
0.00024769025
1.4423403e-05
1.7353081e-05
1.7121043e-05
0.0001143202
0.00011175759
0.00010824109
1.6788536e-05
1.6508575e-05
0.00011242467
0.0001010355
6.2499957e-05
9.6084723e-05
0.000378996
0.00010576753
0.0003984271
0.00011144245
0.00010900201
3.0710123e-05
3.5615699e-05
5.9131727e-05
6.5522951e-05
0.00010252551
0.0003879733
0.00010972628
0.00010409547
1.9319058e-05
0.00015125391
1.9047607e-05
0.00014759041
6.1662443e-05
2.4507636e-05
3.9120952e-05
1.9790713e-05
0.00014106951
0.00015941121
2.1594326e-05
2.0174756e-05
2.8379962e-05
4.507329e-05
4.109118e-05
4.2855872e-05
0.00018612021
2.8104246e-05
0.0001022949
0.00011485848
0.00010147901
0.00011399639
9.1747168e-05
0.00010359167
9.6797721e-05
0.00010937238
9.2576074e-05
0.00010549076
6.6204278e-05
8.0090571e-05
7.550966e-05
9.0051016e-05
1.7567994e-05
1.7257605e-05
1.4687505e-05
5.0306842e-05
5.4908343e-05
0.00019116276
0.00019953477
0.00014763206
3.2154734e-05
4.7132708e-05
1.7135944e-05
1.7971807e-05
1.7503043e-05
1.681194e-05
1.703529e-05
1.604696e-05
0.00010149808
8.3136581e-05
0.00011188814
8.6988709e-05
0.00011107106
8.5441663e-05
5.8905069e-05
8.609125e-05
9.7282571e-05
0.00010549351
0.00010707471
8.575936e-05
0.0001048973
8.8133067e-05
5.2192167e-05
4.5742771e-05
2.8000495e-05
3.0832343e-05
3.9466071e-05
3.3772104e-05
1.9196301e-05
2.708518e-05
1.9574132e-05
1.9749833e-05
1.9266171e-05
1.9623305e-05
6.007381e-05
7.0984561e-05
1.9495718e-05
1.9566456e-05
1.8686784e-05
1.9286446e-05
1.9322144e-05
2.2172463e-05
1.9754843e-05
2.815016e-05
2.9143719e-05
2.5208851e-05
2.1636438e-05
4.0374425e-05
3.5015793e-05
1.5004723e-05
0.00015254143
0.00010177144
9.9376705e-05
9.6084359e-05
9.9914172e-05
8.7507709e-05
7.2851655e-05
5.9559223e-05
8.1903458e-05
6.4711164e-05
0.00014443383
0.0001500155
4.0758088e-05
2.1360374e-05
7.9888462e-05
8.7633395e-05
8.7026636e-05
7.6622154e-05
8.6125799e-05
8.2389788e-05
8.131063e-05
4.5157876e-05
3.53775e-05
3.9034229e-05
2.4051931e-05
1.9846824e-05
1.9123603e-05
7.1201057e-05
1.976256e-05
1.8890386e-05
1.9341435e-05
2.3334286e-05
2.5837351e-05
3.0875662e-05
2.7085864e-05
0.0028419947
0.0033320449
0.0021690932
0.0024145396
0.0019682513
0.00092026803
0.0018418823
0.00063639481
0.001132565
0.00058973546
0.00062544849
0.00091882286
0.00092005775
0.0025873596
0.0010337091
0.00041949802
0.0014390332
0.00057080591
0.0012055258
0.00036404786
0.00031612425
0.00042282298
0.0003585608
0.00035893114
0.00036379376
0.00052250079
0.00038718201
0.00051479421
0.00042677507
0.00014232204
0.00013687273
0.00014364513
0.00013548333
0.00014408644
0.00013821804
0.00014503369
0.00013734453
0.00014193439
0.00013373802
0.00013803445
0.00013376878
0.00013696349
0.00012743113
0.00013332326
0.00013078103
0.00034779687
0.00035125791
0.00031389988
0.00029630711
0.00032405874
0.00033634976
0.00027981109
0.0002617367
0.00053273748
0.00016322617
0.00015642606
0.00023119123
0.00023668814
0.00021642953
0.00021073011
0.00018420801
0.0001911731
0.00025030785
0.00024576233
0.00023716835
0.00024154862
0.00042996529
0.00028468624
0.00029014699
0.00016522783
0.00017337419
0.00016540253
0.00016383638
0.00017133975
0.00024773431
0.00015674933
0.00016061081
0.00015364298
0.00027087176
0.00025960345
0.000258661
0.0002509846
0.00023176484
0.00022497271
0.00020273348
0.00020033372
0.00020969271
0.00021277295
0.00019462943
0.00020247246
0.00022508355
0.00023433336
0.00021737551
0.000225934
0.00018322048
0.00019166806
0.00027401818
0.00027246942
0.00017193544
0.00016011025
0.00024863755
0.00025596087
0.00030407426
0.00017624561
0.00018733517
0.00023787046
0.00023521995
0.00024131637
0.00023589933
0.00014884036
0.00013104879
0.00015184342
0.00012641668
0.00014881227
0.0001315138
0.00015186924
0.00012912153
0.0001489545
0.00012752292
0.00014794712
0.00012417586
0.00014673748
0.0001271014
0.00031981494
0.00032937898
0.00031022586
0.00029634571
0.00032584707
0.00028436889
0.00024587453
0.0002709957
0.00024880289
0.00022419359
0.00023484668
0.00029782694
0.00039543662
0.00038535792
0.00042613031
0.00037978216
0.00030667321
0.00028855777
0.00037978545
0.00025690368
0.00031105231
0.00015648393
0.0002587554
0.00018070004
0.00015808217
0.00015648652
0.0001728766
0.00017996645
0.00015345899
0.00015072411
0.00024857625
0.00024974922
0.00025037809
0.00015394565
0.00024596154
0.00026126401
0.00015257679
0.00029623908
0.00036360365
0.00027860252
0.00022325858
0.00025119705
0.00023466865
0.00014979536
0.00014131142
0.00013792069
0.00012998492
0.00015105359
0.00014472001
0.00013415105
0.00012839865
0.00021973187
0.00020501907
0.00024394171
0.00022126156
0.00019857319
0.00018922557
0.0002154989
0.00022426746
0.00017956513
0.00019903961
0.00018815018
0.00021310066
0.00015023559
0.00014239775
0.00013839899
0.00013134674
0.0001512562
0.00014522902
0.00013578901
0.00013054402
0.00014930047
0.00014132114
0.00016943105
0.00011131041
0.00014366392
0.00014431794
0.00013350271
0.00012085083
0.00014377761
0.00014000521
0.00012145161
0.00013992427
0.00013358463
0.00012453099
0.00034019003
0.00032608247
0.00032930559
0.00035043054
0.00029723784
0.00032872712
0.00028132706
0.00030825706
0.0003095487
0.00031857775
0.0003453483
0.00027143326
0.00029448336
0.00024862596
0.00036465031
0.00025879453
0.00023086904
0.00026424758
0.00027980574
0.00027660013
0.00028808038
0.00021825455
0.00042866168
0.0003057334
0.00029547997
0.00033031754
0.00016622149
0.000170166
0.00014985609
0.00015969069
0.00022627192
0.00022638045
0.000243319
0.00022945655
0.00021548738
0.00022160082
0.00021054652
0.00020454672
0.00018621017
0.00017717984
0.00019273316
0.00019798758
0.00037547353
0.00023423142
0.00032517395
0.00025720189
0.00025131873
0.00025397335
0.00024085533
0.00023267186
0.00022817191
0.00024430174
0.00023228168
0.00029652275
0.0004212865
0.00029943489
0.00043318532
0.00029846928
0.00027670533
0.00030709518
0.00030747321
0.000157445
0.00016431607
0.00017238853
0.00018196138
0.0001586207
0.00017309647
0.00015650857
0.00016412158
0.00017194665
0.00017900325
0.00014830159
0.00014935378
0.00015074717
0.00016687809
0.00016778061
0.00014676065
0.00028656742
0.00029299641
0.00027215151
0.00026698882
0.00026851501
0.00025916877
0.0002443511
0.00023814097
0.00023670885
0.0002177593
0.00022916288
0.00019173947
0.00020027529
0.00019098228
0.00019792005
0.00020670598
0.00021897553
0.00021286674
0.00022265271
0.00018678481
0.00019645034
0.00021021994
0.00020479608
0.00023231679
0.00024078781
0.00023935139
0.00020903647
0.0002306987
0.00021547136
0.00017525678
0.00020036018
0.00026354602
0.00026595004
0.00026254131
0.00018066712
0.0002486044
0.00016326561
0.0002398443
0.000378167
0.00024643031
0.00027803277
0.00017989527
0.00020094803
0.0003194311
0.00016835208
0.00020125555
0.00038296622
0.00024553978
0.00023789773
0.00024466383
0.00024272184
0.00023254422
0.0029394767
0.0077197383
0.0037893159
0.0076081889
0.015805245
0.012652122
0.0028092981
0.0075864116
0.0017732752
0.0050027576
0.00616227
0.013481354
0.0059945842
0.0018254168
0.0066653455
0.0071027662
0.0044744129
0.0055230138
0.0013187767
0.0017995739
0.0012458593
0.0094885307
0.001540679
0.0055290626
0.0044890362
0.0067000723
0.0012766269
0.0018256765
0.0016808406
0.00068198228
0.0017782243
0.0010084082
0.00061806523
0.0013942272
0.00076355387
0.00095177266
0.0013594918
0.0070489499
0.0047397647
0.0026821347
0.0038727322
0.0027091457
0.0021146616
0.0035334982
0.0020394417
0.00051040872
0.001350338
0.0014490612
0.0005207556
0.0021794554
0.0044408636
0.0019616017
0.0035740824
0.0025806722
0.004085549
0.0034611856
5.0191657e-07
3.9749013e-07
3.6055114e-07
3.8295845e-07
3.0869721e-05
3.0601795e-05
3.6014454e-05
6.212254e-06
6.1909266e-06
6.4468989e-06
6.2113456e-06
6.2899586e-06
3.6384945e-05
7.1662597e-06
4.3405725e-06
4.340165e-06
1.9803681e-06
3.2048482e-06
7.1633373e-06
3.0118731e-05
7.1367745e-06
4.3366477e-06
4.3284804e-06
7.3325032e-06
3.4417907e-05
4.0108684e-05
4.3269807e-06
4.3355919e-06
5.1282678e-06
6.2102763e-06
5.1268163e-06
5.1108088e-06
6.203328e-06
5.1210442e-06
4.2334773e-06
4.0190546e-06
9.2392225e-06
5.9223219e-06
5.2340292e-06
5.4150385e-06
4.2915465e-06
4.3151459e-06
5.1265348e-06
6.2110602e-06
5.124767e-06
5.1568589e-06
6.2254664e-06
5.1300657e-06
4.0675556e-05
7.1634398e-06
8.6577653e-06
8.6580298e-06
7.1550153e-06
8.6511161e-06
8.5854448e-06
7.0979713e-06
7.7003239e-06
8.470014e-06
1.0853165e-05
4.8660837e-06
6.0846392e-06
6.1726426e-06
4.925374e-06
5.771534e-06
4.2520352e-06
4.2766895e-06
3.0813961e-05
7.1410848e-06
3.0629196e-05
7.120046e-06
4.2237036e-06
4.191285e-06
5.5546785e-06
3.3048732e-06
3.8488487e-06
5.0231809e-06
6.1194809e-06
5.0519241e-06
4.3141322e-06
4.2973983e-06
6.1489506e-06
5.0956976e-06
5.0761052e-06
4.9901958e-06
4.1131829e-06
4.1548102e-06
4.8535658e-06
4.0636439e-06
3.9968379e-06
4.0602937e-06
5.4530833e-06
4.4922405e-06
4.7800021e-06
5.6507067e-06
4.6746987e-06
3.6095084e-05
5.7339884e-06
3.6318617e-05
4.061274e-05
7.1554116e-06
8.630338e-06
8.6488163e-06
7.0588347e-06
7.0926257e-06
8.6059377e-06
8.5717398e-06
6.3497743e-06
4.3311878e-06
1.956733e-06
3.7476429e-06
5.4303895e-06
6.8899903e-06
6.2990231e-06
6.0913514e-06
6.5588331e-06
0.00039681223
0.0015559222
0.0012164293
2.7561395e-07
2.8981032e-07
3.0498918e-07
3.3959179e-07
3.2138824e-07
2.9136894e-07
3.7085896e-07
2.6238783e-07
3.2101911e-07
4.0936595e-07
2.365794e-07
2.5010924e-07
3.5195591e-07
2.3206892e-07
3.5669058e-07
2.8698436e-07
3.7243999e-07
3.3652064e-07
3.9206241e-07
4.108858e-07
4.2777201e-07
4.2683461e-07
2.7555015e-07
1.9617068e-07
2.1330343e-07
2.3644679e-07
2.3048285e-07
2.8716659e-07
2.0604686e-07
2.0725954e-07
4.0952663e-07
4.2972618e-07
2.1672296e-06
1.9436052e-06
1.9174986e-06
2.218371e-06
3.6899024e-07
6.469054e-07
2.3996428e-06
6.5123496e-07
2.1826659e-06
2.1516635e-06
6.6450291e-07
5.2121239e-07
2.4591747e-06
6.6387749e-07
3.8761586e-07
3.5681521e-07
3.5772766e-07
3.6137717e-07
3.6310667e-07
3.6215387e-07
3.6378266e-07
3.684085e-07
3.7077561e-07
2.0617839e-06
3.7188331e-07
3.7060416e-07
3.6625154e-07
2.0523509e-06
3.6978853e-07
3.78184e-07
4.3561994e-07
4.1049648e-07
4.6418522e-07
6.0368459e-07
6.6060563e-07
6.0624309e-07
6.1410822e-07
6.6252414e-07
6.1764499e-07
6.1574892e-07
6.5849424e-07
4.8715532e-07
6.253161e-07
6.5939939e-07
6.1839754e-07
6.2302552e-07
4.5630845e-07
4.8768999e-07
5.8313317e-07
5.3136234e-07
2.3127578e-06
5.3569601e-07
5.3377655e-07
2.3015505e-06
5.260473e-07
5.3238972e-07
4.5778966e-07
5.4399713e-07
5.8602585e-07
4.4689528e-07
6.4198101e-07
6.6469296e-07
6.5496313e-07
6.6905042e-07
6.6447797e-07
6.8235151e-07
6.1904747e-07
5.3447496e-07
6.6267919e-07
6.8175575e-07
4.079729e-07
4.6935926e-07
2.8078604e-07
3.5633981e-07
2.8218808e-07
3.5904727e-07
3.6034162e-07
2.8525867e-07
2.8634748e-07
3.6289427e-07
2.8585701e-07
3.6265151e-07
2.8617646e-07
3.6506784e-07
2.8605392e-07
3.6668198e-07
4.689127e-07
4.4453716e-07
6.5258802e-07
6.0148457e-07
6.5808846e-07
6.785148e-07
6.5677665e-07
6.0917546e-07
6.6586432e-07
6.1190989e-07
6.6381099e-07
6.8043485e-07
6.6947491e-07
6.1735305e-07
6.6769833e-07
6.1681974e-07
6.5429659e-07
6.7898237e-07
5.2259569e-07
5.9372787e-07
6.6103676e-07
6.7860755e-07
6.6892104e-07
6.1977064e-07
6.671481e-07
6.2140556e-07
4.3052211e-07
5.5464587e-07
4.9253658e-07
5.1536001e-07
5.8325491e-07
5.4700671e-07
3.8348187e-07
3.334652e-07
3.7131473e-07
3.3052531e-07
3.7116282e-07
3.345292e-07
3.6729182e-07
3.2541236e-07
3.6874178e-07
3.3380269e-07
3.930902e-07
3.4018407e-07
3.6754244e-07
4.3139574e-07
4.0688371e-07
4.2767335e-07
6.6898442e-07
6.2507507e-07
5.474819e-07
4.327518e-07
5.3499819e-07
4.3114587e-07
5.3472642e-07
4.3630265e-07
5.280973e-07
4.2353984e-07
5.3057523e-07
4.3523066e-07
3.8491484e-07
5.0043546e-07
5.6373471e-07
4.4270463e-07
5.4734671e-07
5.8183391e-07
6.5975551e-07
6.7282323e-07
6.8235366e-07
6.4121805e-07
6.8070939e-07
4.9422217e-07
2.7923449e-07
2.0418823e-07
2.0551403e-07