/*--------------------------------*- C++ -*----------------------------------*\
  =========                 |
  \\      /  F ield         | OpenFOAM: The Open Source CFD Toolbox
   \\    /   O peration     | Website:  https://openfoam.org
    \\  /    A nd           | Version:  8
     \\/     M anipulation  |
\*---------------------------------------------------------------------------*/
/*   Windows 32 and 64 bit porting by blueCAPE: http://www.bluecape.com.pt   *\
|  Based on Windows porting (2.0.x v4) by Symscape: http://www.symscape.com   |
\*---------------------------------------------------------------------------*/
FoamFile
{
    version     2.0;
    format      ascii;
    class       labelListList;
    location    "constant/vegetation";
    object      globalFaceFaces;
}
// * * * * * * * * * * * * * * * * * * * * * * * * * * * * * * * * * * * * * //


408
(

2310
(
441
442
443
444
445
447
450
451
453
456
464
475
476
477
478
479
480
481
482
483
521
522
523
542
543
544
545
582
583
593
600
601
602
603
604
641
642
643
644
645
753
754
755
756
757
758
759
760
761
762
769
770
771
802
803
805
806
808
810
811
812
813
815
816
817
818
819
820
821
822
824
826
828
833
834
835
836
837
838
839
840
841
842
843
844
845
846
847
848
849
850
851
852
853
854
855
856
857
858
859
860
861
862
863
864
865
866
867
868
869
870
871
872
873
874
875
876
877
878
879
880
881
882
883
884
885
886
887
888
889
890
891
892
893
894
895
896
897
898
899
900
901
902
903
904
905
906
907
908
909
910
911
912
913
914
915
916
917
918
919
920
921
922
923
924
925
926
927
928
929
930
931
932
933
934
935
936
937
938
939
940
941
942
943
944
945
946
947
948
949
950
951
952
953
954
955
956
957
958
959
960
961
962
963
964
965
966
967
968
969
970
971
972
973
974
975
976
977
978
979
980
981
982
983
984
985
986
987
988
989
990
991
992
993
994
995
996
997
998
999
1000
1001
1002
1003
1004
1005
1006
1007
1008
1009
1010
1011
1012
1013
1014
1015
1016
1017
1018
1019
1020
1021
1022
1023
1024
1025
1026
1027
1028
1029
1030
1031
1032
1033
1034
1035
1036
1037
1038
1039
1040
1041
1042
1043
1044
1045
1046
1047
1048
1049
1050
1051
1052
1053
1054
1055
1056
1057
1058
1059
1060
1061
1062
1063
1064
1065
1066
1067
1068
1069
1070
1071
1072
1073
1074
1075
1076
1077
1078
1079
1080
1081
1082
1083
1084
1085
1086
1087
1088
1089
1090
1091
1092
1093
1094
1095
1096
1097
1098
1099
1100
1101
1102
1103
1104
1105
1106
1107
1108
1109
1110
1111
1112
1113
1114
1115
1116
1117
1118
1119
1120
1121
1122
1123
1124
1125
1126
1127
1128
1129
1130
1132
1134
1140
1144
1147
1149
1150
1151
1152
1154
1155
1184
1185
1186
1187
1189
1190
1191
1192
1193
1194
1195
1196
1197
1203
1205
1207
1208
1209
1210
1211
1212
1213
1214
1215
1216
1217
1218
1219
1220
1229
1233
1239
1241
1242
1244
1254
1255
1256
1257
1263
1264
1265
1266
1271
1272
1273
1274
1275
1276
1290
1291
1292
1293
1294
1295
1296
1297
1298
1299
1300
1301
1302
1303
1304
1305
1306
1307
1308
1309
1316
1317
1318
1319
1320
1321
1322
1323
1324
1325
1413
1433
1444
1445
1454
1455
1456
1457
1458
1459
1460
1487
1488
1489
1490
1491
1492
1493
1494
1495
1496
1518
1519
1520
1527
1528
1545
1546
1547
1548
1549
1550
1551
1552
1553
1554
1555
1556
1557
1558
1559
1560
1561
1562
1563
1564
1565
1566
1567
1568
1569
1570
1571
1572
1573
1574
1575
1576
1577
1578
1579
1580
1581
1582
1583
1584
1585
1586
1587
1588
1589
1590
1591
1592
1593
1594
1595
1596
1597
1598
1599
1600
1601
1602
1603
1604
1605
1606
1607
1608
1609
1610
1611
1612
1613
1614
1615
1616
1617
1618
1619
1620
1621
1622
1623
1624
1625
1626
1627
1628
1629
1630
1631
1632
1633
1634
1635
1636
1637
1638
1639
1640
1641
1642
1643
1644
1645
1646
1647
1648
1649
1650
1651
1652
1653
1654
1655
1656
1657
1658
1659
1660
1661
1662
1663
1664
1665
1666
1667
1668
1669
1670
1671
1672
1673
1674
1675
1676
1677
1678
1679
1680
1681
1682
1683
1684
1685
1686
1687
1688
1689
1690
1691
1692
1693
1694
1695
1696
1697
1698
1699
1700
1701
1702
1703
1704
1705
1706
1707
1708
1709
1710
1711
1712
1713
1714
1715
1716
1717
1718
1719
1720
1721
1722
1723
1724
1725
1726
1727
1728
1729
1730
1731
1732
1733
1734
1735
1736
1737
1738
1739
1740
1741
1742
1743
1744
1745
1746
1747
1748
1749
1750
1751
1752
1753
1754
1755
1756
1757
1758
1759
1760
1761
1762
1763
1764
1765
1766
1767
1768
1769
1770
1771
1772
1773
1774
1775
1776
1777
1778
1779
1780
1781
1782
1783
1784
1785
1786
1787
1788
1789
1790
1791
1792
1793
1794
1795
1796
1797
1798
1799
1800
1801
1802
1803
1804
1805
1806
1807
1808
1809
1810
1811
1812
1813
1814
1815
1816
1817
1818
1819
1820
1821
1822
1823
1824
1825
1826
1827
1828
1829
1830
1831
1832
1833
1834
1835
1836
1837
1838
1839
1840
1841
1842
1843
1844
1845
1846
1847
1848
1849
1850
1851
1852
1853
1854
1855
1856
1857
1858
1859
1860
1861
1862
1863
1864
1865
1866
1867
1868
1869
1870
1871
1872
1873
1874
1875
1876
1877
1878
1879
1880
1881
1882
1883
1884
1885
1886
1887
1888
1889
1890
1891
1892
1893
1894
1895
1896
1897
1898
1899
1900
1901
1902
1903
1904
1905
1906
1907
1908
1909
1910
1911
1912
1913
1914
1915
1916
1917
1918
1919
1920
1921
1922
1923
1924
1925
1926
1927
1928
1929
1930
1931
1932
1933
1934
1935
1936
1937
1938
1939
1940
1941
1942
1943
1944
1947
1949
1951
1952
1953
1955
1956
1975
1976
1977
1978
1979
1981
1982
1983
1984
1985
1989
1990
1991
1992
1993
1994
1995
1996
1997
1998
1999
2000
2001
2002
2003
2004
2005
2007
2010
2012
2013
2014
2015
2016
2017
2018
2019
2020
2021
2022
2023
2024
2025
2026
2027
2028
2031
2035
2039
2041
2042
2043
2044
2045
2046
2047
2048
2049
2050
2051
2052
2053
2057
2058
2059
2060
2061
2069
2070
2071
2072
2073
2076
2077
2091
2092
2093
2094
2095
2096
2097
2098
2099
2100
2101
2102
2103
2104
2105
2106
2107
2108
2114
2115
2116
2117
2123
2124
2125
2126
2127
2128
2129
2130
2131
2132
2133
2134
2203
2236
2238
2239
2240
2241
2242
2256
2265
2266
2299
2300
2301
2302
2303
2304
2305
2306
2307
2327
2328
2339
2340
2341
2342
2355
2356
2366
2367
2370
2371
2372
2374
2376
2378
2381
2383
2384
2385
2392
2403
2404
2405
2406
2407
2408
2409
2410
2411
2412
2413
2414
2415
2416
2417
2418
2420
2421
2422
2423
2424
2425
2426
2427
2428
2429
2430
2431
2432
2433
2434
2435
2436
2437
2438
2439
2440
2442
2447
2448
2449
2450
2451
2452
2453
2454
2456
2457
2459
2460
2461
2462
2463
2464
2465
2466
2467
2468
2469
2470
2471
2472
2473
2474
2476
2477
2478
2480
2481
2482
2483
2484
2485
2486
2487
2488
2489
2490
2491
2492
2493
2494
2495
2496
2497
2498
2499
2500
2501
2502
2511
2512
2513
2514
2515
2516
2517
2518
2521
2523
2524
2527
2528
2529
2530
2531
2532
2533
2534
2535
2539
2540
2541
2542
2543
2544
2545
2546
2547
2548
2549
2550
2551
2552
2554
2555
2556
2557
2558
2559
2560
2561
2562
2563
2564
2565
2566
2567
2568
2571
2572
2575
2576
2577
2578
2579
2580
2581
2582
2583
2584
2585
2586
2587
2588
2589
2590
2591
2592
2593
2594
2595
2596
2597
2598
2599
2600
2601
2602
2603
2604
2605
2606
2607
2608
2609
2610
2611
2612
2613
2614
2624
2627
2628
2629
2630
2631
2632
2633
2634
2638
2640
2642
2643
2644
2658
2659
2660
2661
2662
2663
2664
2665
2672
2673
2676
2677
2679
2680
2687
2688
2689
2690
2691
2692
2708
2709
2710
2711
2712
2716
2717
2724
2725
2726
2727
2738
2739
2740
2741
2742
2743
2744
2748
2749
2750
2751
2752
2753
2760
2761
2762
2763
2764
2765
2766
2767
2768
2769
2770
2771
2772
2782
2783
2801
2802
2803
2804
2805
2806
2807
2808
2809
2810
2811
2812
2813
2814
2815
2816
2817
2821
2822
2823
2824
2825
2832
2833
2834
2835
2836
2837
2838
2842
2843
2844
2845
2858
2859
2860
2861
2862
2863
2873
2874
2875
2876
2877
2878
2879
2880
2893
2894
2895
2896
2897
2898
2899
2900
2901
2902
2903
2904
2905
2906
2907
2908
2909
2910
2911
2912
2913
2914
2915
2916
2917
2918
2919
2920
2937
2956
2957
2958
2959
2960
2961
2962
2963
2983
2987
2988
2989
2993
3003
3004
3005
3006
3007
3008
3009
3025
3026
3027
3028
3035
3036
3037
3038
3039
3040
3041
3042
3043
3044
3045
3046
3047
3048
3049
3050
3051
3052
3053
3054
3055
3056
3057
3058
3059
3060
3061
3062
3063
3064
3065
3066
3067
3068
3069
3070
3071
3072
3073
3074
3075
3076
3077
3078
3079
3080
3081
3082
3083
3084
3085
3086
3087
3088
3089
3090
3091
3092
3093
3094
3095
3096
3097
3098
3099
3100
3101
3102
3103
3104
3105
3106
3107
3108
3109
3110
3111
3112
3113
3114
3115
3116
3117
3118
3119
3120
3121
3122
3123
3124
3125
3126
3127
3128
3129
3130
3131
3132
3133
3134
3135
3136
3137
3138
3139
3140
3141
3142
3143
3144
3145
3146
3147
3148
3149
3150
3151
3152
3153
3154
3155
3156
3157
3158
3159
3160
3161
3162
3163
3164
3165
3166
3167
3168
3169
3170
3171
3172
3173
3174
3175
3176
3177
3178
3179
3180
3181
3182
3183
3184
3185
3186
3187
3188
3189
3190
3191
3192
3193
3194
3195
3196
3197
3198
3199
3200
3201
3202
3203
3204
3205
3206
3207
3208
3209
3210
3211
3212
3213
3214
3215
3216
3217
3218
3219
3220
3221
3222
3223
3224
3225
3226
3227
3228
3229
3230
3231
3232
3233
3234
3235
3236
3237
3238
3239
3240
3241
3242
3243
3244
3245
3246
3247
3248
3249
3250
3251
3252
3253
3254
3255
3256
3257
3258
3259
3260
3261
3262
3263
3264
3265
3266
3267
3268
3269
3270
3271
3272
3273
3274
3275
3276
3277
3278
3279
3280
3281
3282
3283
3284
3285
3286
3287
3288
3289
3290
3291
3292
3293
3294
3295
3296
3297
3298
3299
3300
3301
3302
3303
3304
3305
3306
3307
3308
3309
3310
3311
3312
3313
3314
3315
3316
3317
3318
3319
3320
3321
3322
3323
3324
3325
3326
3327
3328
3329
3330
3331
3332
3333
3334
3335
3336
3337
3338
3339
3340
3341
3342
3343
3344
3345
3346
3347
3348
3349
3350
3351
3352
3353
3354
3355
3356
3357
3358
3359
3360
3361
3362
3363
3364
3365
3366
3367
3368
3369
3370
3371
3372
3373
3374
3375
3376
3377
3378
3379
3380
3381
3388
3389
3390
3391
3392
3393
3396
3397
3398
3399
3400
3401
3402
3403
3404
3405
3406
3408
3409
3410
3411
3412
3413
3414
3415
3416
3417
3418
3419
3420
3422
3425
3431
3432
3433
3434
3435
3439
3440
3441
3442
3443
3444
3445
3446
3447
3448
3449
3450
3454
3455
3457
3458
3459
3460
3461
3494
3495
3496
3497
3504
3510
3516
3526
3527
3538
3539
3540
3541
3547
3548
3549
3555
3556
3557
3558
3559
3560
3561
3564
3568
3569
3577
3578
3579
3580
3581
3582
3583
3584
3592
3593
3594
3596
3597
3599
3600
3601
3602
3603
3604
3605
3606
3607
3620
3622
3623
3624
3631
3632
3633
3634
3635
3636
3843
3866
3867
3868
3871
3872
3883
3884
3885
3886
3888
3889
3890
3891
3893
3898
3899
3912
3913
3914
3915
3916
3917
3918
3919
3920
3923
3924
3926
3928
3929
3930
3931
3932
3933
3934
3935
3939
3942
3943
3944
3947
3948
3949
3950
3953
3954
3955
3956
3965
3966
3970
3983
3985
4004
4005
4006
4088
4089
4090
4126
4127
4128
4129
4130
4156
4157
4174
4175
4176
4202
4203
4217
4218
4219
4220
4221
4252
4253
4254
4255
4416
4417
4418
4419
4420
4421
4422
4423
4424
4467
4468
4507
4508
4510
4511
4512
4515
4516
4517
4518
4519
4520
4521
4522
4523
4524
4525
4526
4527
4528
4529
4530
4531
4543
4545
4546
4547
4549
4550
4551
4552
4553
4554
4555
4556
4557
4558
4559
4560
4561
4562
4563
4564
4565
4566
4567
4568
4569
4570
4571
4582
4583
4584
4585
4586
4587
4588
4589
4590
4591
4592
4593
4594
4595
4596
4597
4598
4599
4600
4601
4602
4603
4604
4607
4608
4609
4610
4611
4612
4613
4614
4615
4616
4617
4618
4619
4620
4626
4627
4628
4629
4630
4631
4632
4633
4634
4635
4636
4637
4638
4639
4640
4641
4642
4643
4644
4645
4646
4647
4648
4649
4650
4651
4652
4653
4654
4655
4656
4657
4658
4659
4660
4661
4662
4663
4664
4665
4666
4667
4668
4669
4670
4671
4672
4673
4674
4675
4676
4677
4678
4679
4680
4681
4682
4683
4684
4685
4686
4687
4688
4689
4690
4691
4828
4829
4830
4831
4832
4833
4836
4837
4838
4839
4840
4841
4842
4843
4844
4845
4846
4847
4848
4849
4850
4851
4852
4853
4854
4855
4856
4905
4906
4907
4908
4909
4910
4911
4912
4913
4914
4915
4916
4917
4918
4919
4920
4937
4938
4939
4940
4941
4942
4943
4944
4945
4946
4947
4948
4949
4950
4951
4952
4953
4954
4955
4956
4957
4991
4992
4993
4994
4996
4997
4998
4999
5000
5001
5002
5003
5004
5010
5012
5014
5015
5016
5017
5018
5019
5020
5021
5022
5023
5024
5025
5026
5027
5038
5042
5046
5048
5049
5051
5060
5061
5062
5063
5067
5068
5069
5070
5075
5076
5077
5078
5079
5080
5094
5095
5096
5097
5098
5099
5100
5101
5102
5103
5104
5105
5106
5107
5108
5109
5110
5111
5112
5113
5120
5121
5122
5123
5124
5125
5126
5127
5128
5129
5216
5240
5251
5252
5261
5262
5263
5264
5265
5266
5267
5294
5295
5296
5297
5298
5299
5300
5301
5302
5303
5325
5326
5327
5334
5335
5348
5349
5350
5351
5352
5426
5431
5432
5445
5450
5453
5457
5460
5461
5462
5463
5464
5467
5480
5484
5485
5486
5487
5488
5489
5491
5708
5724
5728
5734
5736
6014
6042
6045
6046
6047
6048
6049
6054
6060
)


1723
(
0
3
10
13
17
25
26
34
35
36
441
442
443
444
445
446
447
448
449
450
451
454
475
476
477
478
479
480
481
482
483
521
522
523
542
543
544
545
582
583
593
600
601
602
603
604
641
642
643
644
645
753
754
755
756
757
758
759
760
761
762
769
770
771
802
804
805
809
813
814
815
816
818
821
825
826
827
828
833
834
841
846
1132
1133
1134
1135
1136
1140
1144
1147
1148
1149
1150
1151
1184
1185
1186
1187
1189
1190
1191
1192
1193
1194
1195
1196
1197
1203
1205
1207
1208
1209
1210
1211
1212
1213
1214
1215
1216
1217
1218
1219
1220
1229
1233
1239
1241
1242
1244
1254
1255
1256
1257
1263
1264
1265
1266
1271
1272
1273
1274
1275
1276
1290
1291
1292
1293
1294
1295
1296
1297
1298
1299
1300
1301
1302
1303
1304
1305
1306
1307
1308
1309
1316
1317
1318
1319
1320
1321
1322
1323
1324
1325
1413
1433
1444
1445
1454
1455
1456
1457
1458
1459
1460
1487
1488
1489
1490
1491
1492
1493
1494
1495
1496
1518
1519
1520
1527
1528
1550
1551
1552
1555
1556
1561
1562
1563
1564
1565
1566
1567
1568
1569
1570
1581
1582
1583
1584
1585
1590
1613
1614
1615
1616
1617
1618
1619
1630
1631
1632
1637
1638
1639
1640
1641
1642
1643
1644
1645
1646
1647
1648
1649
1650
1651
1652
1701
1702
1703
1704
1705
1706
1707
1708
1709
1710
1712
1713
1714
1715
1716
1717
1718
1719
1720
1721
1722
1723
1724
1726
1727
1728
1729
1730
1731
1732
1733
1734
1735
1736
1737
1738
1770
1778
1779
1780
1781
1782
1783
1784
1785
1786
1787
1788
1789
1790
1791
1792
1793
1794
1795
1796
1797
1798
1799
1800
1801
1802
1803
1804
1805
1806
1807
1808
1809
1810
1811
1812
1813
1814
1815
1816
1817
1818
1819
1820
1821
1822
1823
1824
1825
1826
1827
1828
1829
1830
1831
1832
1833
1834
1835
1836
1837
1838
1839
1840
1841
1871
1872
1873
1874
1875
1876
1877
1878
1879
1880
1881
1882
1883
1884
1885
1886
1887
1888
1889
1890
1891
1892
1893
1894
1895
1896
1897
1901
1902
1903
1904
1905
1906
1907
1908
1912
1913
1914
1915
1916
1917
1928
1929
1930
1931
1932
1933
1934
1935
1936
1937
1938
1939
1940
1941
1942
1943
1944
1947
1948
1949
1950
1951
1952
1953
1956
1975
1976
1977
1978
1979
1981
1982
1983
1984
1985
1989
1990
1991
1992
1993
1994
1995
1996
1997
1998
1999
2000
2001
2002
2003
2004
2005
2007
2010
2012
2013
2014
2015
2016
2017
2018
2019
2020
2021
2022
2023
2024
2025
2026
2027
2028
2031
2035
2039
2041
2042
2043
2044
2045
2046
2047
2048
2049
2050
2051
2052
2053
2057
2058
2059
2060
2061
2069
2070
2071
2072
2073
2076
2077
2091
2092
2093
2094
2095
2096
2097
2098
2099
2100
2101
2102
2103
2104
2105
2106
2107
2108
2114
2115
2116
2117
2123
2124
2125
2126
2127
2128
2129
2130
2131
2132
2133
2134
2203
2236
2238
2239
2240
2241
2242
2256
2265
2266
2299
2300
2301
2302
2303
2304
2305
2306
2307
2327
2328
2339
2340
2341
2342
2355
2356
2366
2367
2368
2370
2371
2372
2374
2381
2383
2384
2385
2392
2403
2404
2405
2406
2407
2408
2409
2410
2413
2414
2415
2416
2417
2418
2422
2424
2425
2426
2427
2428
2429
2430
2431
2432
2433
2434
2435
2436
2437
2438
2439
2440
2447
2448
2449
2450
2451
2453
2454
2456
2457
2459
2460
2461
2462
2463
2464
2465
2466
2467
2468
2469
2470
2471
2472
2473
2474
2480
2482
2483
2484
2485
2486
2487
2488
2489
2490
2491
2492
2493
2494
2495
2496
2498
2499
2501
2502
2511
2512
2513
2514
2517
2518
2521
2524
2527
2528
2529
2530
2531
2532
2533
2534
2535
2538
2539
2540
2541
2542
2543
2544
2545
2546
2547
2548
2549
2550
2555
2557
2558
2559
2560
2561
2562
2563
2564
2565
2566
2567
2568
2575
2576
2579
2580
2581
2582
2583
2584
2585
2586
2587
2588
2589
2590
2591
2592
2593
2595
2596
2597
2598
2599
2600
2601
2602
2603
2604
2605
2606
2607
2608
2609
2610
2611
2612
2613
2614
2624
2627
2628
2629
2630
2631
2632
2633
2634
2635
2636
2637
2638
2639
2640
2641
2642
2643
2644
2645
2649
2650
2658
2659
2660
2661
2662
2663
2664
2665
2672
2673
2676
2677
2679
2680
2687
2688
2689
2690
2691
2692
2708
2709
2710
2711
2712
2716
2717
2724
2725
2726
2727
2738
2739
2740
2741
2742
2743
2744
2748
2749
2750
2751
2752
2753
2760
2761
2762
2763
2764
2765
2766
2767
2768
2769
2770
2771
2772
2782
2783
2801
2802
2803
2804
2805
2806
2807
2808
2809
2810
2811
2812
2813
2814
2815
2816
2817
2821
2822
2823
2824
2825
2832
2833
2834
2835
2836
2837
2838
2842
2843
2844
2845
2858
2859
2860
2861
2862
2863
2873
2874
2875
2876
2877
2878
2879
2880
2893
2894
2895
2896
2897
2898
2899
2900
2901
2902
2903
2904
2905
2906
2907
2908
2909
2910
2911
2912
2913
2914
2915
2916
2917
2918
2919
2920
2937
2956
2957
2958
2959
2960
2961
2962
2963
2983
2987
2988
2989
2993
3003
3004
3005
3006
3007
3008
3009
3025
3026
3027
3028
3035
3036
3037
3038
3039
3040
3041
3042
3043
3044
3045
3046
3049
3051
3056
3057
3058
3061
3062
3063
3066
3067
3069
3070
3071
3072
3073
3078
3079
3080
3081
3086
3087
3088
3089
3090
3091
3092
3093
3094
3095
3096
3097
3098
3099
3101
3102
3103
3104
3105
3106
3107
3108
3109
3110
3111
3112
3113
3119
3120
3121
3122
3123
3124
3125
3126
3127
3128
3129
3130
3131
3132
3133
3134
3135
3136
3137
3138
3139
3140
3141
3142
3144
3145
3146
3147
3148
3149
3150
3151
3152
3153
3158
3159
3160
3161
3163
3164
3166
3167
3168
3169
3170
3171
3172
3173
3174
3175
3176
3177
3178
3179
3180
3181
3182
3183
3184
3185
3186
3187
3188
3190
3194
3196
3197
3198
3199
3200
3201
3202
3203
3204
3205
3206
3207
3208
3209
3210
3219
3220
3221
3222
3223
3225
3226
3227
3228
3230
3231
3232
3233
3234
3235
3236
3237
3238
3241
3244
3247
3248
3249
3250
3251
3252
3253
3254
3255
3256
3257
3258
3259
3260
3261
3262
3263
3264
3265
3266
3267
3268
3269
3270
3271
3272
3273
3274
3275
3276
3277
3278
3279
3280
3282
3283
3284
3285
3286
3287
3288
3289
3290
3291
3292
3293
3294
3295
3296
3297
3298
3299
3300
3301
3302
3303
3304
3305
3306
3307
3308
3309
3310
3311
3312
3313
3324
3325
3326
3327
3328
3329
3330
3331
3332
3333
3334
3335
3336
3337
3338
3339
3340
3341
3342
3344
3345
3346
3347
3348
3349
3350
3351
3352
3353
3354
3355
3356
3357
3358
3359
3360
3361
3362
3363
3365
3366
3367
3368
3369
3370
3371
3372
3373
3374
3375
3376
3377
3378
3379
3380
3381
3389
3391
3392
3393
3394
3395
3396
3397
3398
3399
3400
3401
3402
3404
3405
3407
3408
3410
3411
3413
3414
3416
3417
3418
3421
3422
3425
3426
3428
3429
3431
3433
3434
3435
3439
3440
3441
3442
3443
3444
3445
3446
3447
3449
3450
3454
3455
3457
3459
3460
3461
3465
3470
3477
3494
3495
3496
3497
3504
3510
3516
3526
3527
3539
3540
3541
3547
3548
3549
3555
3556
3557
3559
3560
3561
3577
3578
3579
3580
3581
3582
3583
3584
3592
3593
3594
3597
3599
3600
3601
3602
3603
3604
3605
3606
3607
3622
3623
3624
3631
3632
3633
3634
3636
3866
3867
3868
3871
3883
3884
3885
3886
3888
3889
3890
3891
3893
3898
3899
3912
3913
3914
3915
3916
3917
3918
3919
3920
3923
3924
3928
3929
3930
3931
3932
3933
3934
3935
3939
3942
3943
3947
3948
3949
3950
3952
3953
3954
3955
3965
3966
3970
4004
4005
4006
4088
4089
4090
4092
4093
4094
4126
4127
4128
4129
4130
4156
4157
4174
4175
4176
4202
4203
4217
4218
4219
4220
4221
4252
4253
4254
4255
4416
4417
4418
4419
4420
4421
4422
4423
4424
4467
4468
4507
4508
4510
4511
4512
4515
4516
4517
4518
4519
4520
4521
4522
4523
4524
4525
4526
4527
4528
4529
4530
4531
4543
4545
4546
4547
4549
4550
4551
4552
4553
4554
4555
4556
4557
4558
4559
4560
4561
4562
4563
4564
4565
4566
4567
4568
4569
4570
4571
4582
4583
4584
4585
4586
4587
4588
4589
4590
4591
4592
4593
4594
4595
4596
4597
4598
4599
4600
4601
4602
4603
4604
4607
4608
4609
4610
4611
4612
4613
4614
4615
4616
4617
4618
4619
4620
4626
4627
4628
4629
4630
4631
4632
4633
4634
4635
4636
4637
4638
4639
4640
4641
4642
4643
4644
4645
4646
4647
4648
4649
4650
4651
4652
4653
4654
4655
4656
4657
4658
4659
4660
4661
4662
4663
4664
4665
4666
4667
4668
4669
4670
4671
4672
4673
4674
4675
4676
4677
4678
4679
4680
4681
4682
4683
4684
4685
4686
4687
4688
4689
4690
4691
4828
4829
4830
4831
4832
4833
4836
4837
4838
4839
4840
4841
4842
4843
4844
4845
4846
4847
4848
4849
4850
4851
4852
4853
4854
4855
4856
4905
4906
4907
4908
4909
4910
4911
4912
4913
4914
4915
4916
4917
4918
4919
4920
4937
4938
4939
4940
4941
4942
4943
4944
4945
4946
4947
4948
4949
4950
4951
4952
4953
4954
4955
4956
4991
4992
4993
4994
4996
4997
4998
4999
5000
5001
5002
5003
5004
5010
5012
5014
5015
5016
5017
5018
5019
5020
5021
5022
5023
5024
5025
5026
5027
5038
5042
5046
5048
5049
5051
5060
5061
5062
5063
5067
5068
5069
5070
5075
5076
5077
5078
5079
5080
5094
5095
5096
5097
5098
5099
5100
5101
5102
5103
5104
5105
5106
5107
5108
5109
5110
5111
5112
5113
5120
5121
5122
5123
5124
5125
5126
5127
5128
5129
5216
5240
5251
5252
5261
5262
5263
5264
5265
5266
5267
5294
5295
5296
5297
5298
5299
5300
5301
5302
5303
5325
5326
5327
5334
5335
5348
5349
5350
5351
5352
5353
5355
5356
5363
5364
5370
5372
5373
5385
5426
5431
5441
5450
5457
5460
5461
5462
5464
5465
5467
5475
5491
6045
6046
6047
6048
6054
)


1638
(
0
1
441
442
443
444
475
476
477
478
479
480
481
482
483
521
522
523
542
543
544
545
582
583
593
600
601
602
603
604
641
642
643
644
645
753
754
755
756
757
758
759
760
761
762
769
770
771
1148
1149
1150
1151
1184
1185
1186
1187
1189
1190
1191
1192
1193
1194
1195
1196
1197
1203
1205
1207
1208
1209
1210
1211
1212
1213
1214
1215
1216
1217
1218
1219
1220
1229
1233
1239
1241
1242
1244
1254
1255
1256
1257
1263
1264
1265
1266
1271
1272
1273
1274
1275
1276
1290
1291
1292
1293
1294
1295
1296
1297
1298
1299
1300
1301
1302
1303
1304
1305
1306
1307
1308
1309
1316
1317
1318
1319
1320
1321
1322
1323
1324
1325
1413
1433
1444
1445
1454
1455
1456
1457
1458
1459
1460
1487
1488
1489
1490
1491
1492
1493
1494
1495
1496
1518
1519
1520
1527
1528
1550
1551
1552
1555
1556
1561
1562
1563
1564
1565
1566
1567
1568
1569
1570
1581
1582
1583
1584
1585
1590
1613
1614
1615
1616
1617
1618
1619
1630
1631
1632
1637
1638
1639
1640
1641
1642
1643
1644
1645
1646
1647
1648
1649
1650
1651
1652
1701
1702
1703
1704
1705
1706
1707
1708
1709
1710
1712
1713
1714
1715
1716
1717
1718
1719
1720
1721
1722
1723
1724
1726
1727
1728
1729
1730
1731
1732
1733
1734
1735
1736
1737
1738
1770
1778
1779
1780
1781
1782
1783
1784
1785
1786
1787
1788
1789
1790
1791
1792
1793
1794
1795
1796
1797
1798
1799
1800
1801
1802
1803
1804
1805
1806
1807
1808
1809
1810
1811
1812
1813
1814
1815
1816
1817
1818
1819
1820
1821
1822
1823
1824
1825
1826
1827
1828
1829
1830
1831
1832
1833
1834
1835
1836
1837
1838
1839
1840
1841
1871
1872
1873
1874
1875
1876
1877
1878
1879
1880
1881
1882
1883
1884
1885
1886
1887
1888
1889
1890
1891
1892
1893
1894
1895
1896
1897
1901
1902
1903
1904
1905
1906
1907
1908
1912
1913
1914
1915
1916
1917
1928
1929
1930
1931
1932
1933
1934
1935
1936
1937
1938
1939
1940
1941
1942
1943
1944
1949
1950
1951
1952
1953
1954
1955
1956
1957
1958
1959
1975
1976
1977
1978
1979
1981
1982
1983
1984
1985
1989
1990
1991
1992
1993
1994
1995
1996
1997
1998
1999
2000
2001
2002
2003
2004
2005
2007
2010
2012
2013
2014
2015
2016
2017
2018
2019
2020
2021
2022
2023
2024
2025
2026
2027
2028
2031
2035
2039
2041
2042
2043
2044
2045
2046
2047
2048
2049
2050
2051
2052
2053
2057
2058
2059
2060
2061
2069
2070
2071
2072
2073
2076
2077
2091
2092
2093
2094
2095
2096
2097
2098
2099
2100
2101
2102
2103
2104
2105
2106
2107
2108
2114
2115
2116
2117
2123
2124
2125
2126
2127
2128
2129
2130
2131
2132
2133
2134
2203
2236
2238
2239
2240
2241
2242
2256
2265
2266
2299
2300
2301
2302
2303
2304
2305
2306
2307
2327
2328
2339
2340
2341
2342
2355
2356
2366
2368
2369
2371
2374
2379
2381
2389
2396
2397
2403
2404
2405
2406
2407
2408
2409
2410
2411
2412
2413
2414
2415
2416
2417
2418
2420
2425
2426
2427
2428
2429
2430
2431
2432
2435
2436
2437
2438
2439
2440
2441
2442
2444
2445
2447
2448
2449
2450
2451
2452
2459
2460
2461
2462
2463
2464
2465
2466
2467
2468
2469
2470
2471
2472
2476
2477
2483
2484
2485
2486
2487
2488
2489
2490
2491
2492
2493
2494
2495
2496
2498
2501
2502
2505
2506
2507
2508
2511
2512
2513
2514
2515
2516
2527
2528
2529
2530
2531
2532
2533
2534
2535
2536
2537
2538
2539
2540
2541
2542
2543
2544
2545
2546
2547
2548
2549
2550
2551
2552
2553
2554
2555
2556
2557
2558
2559
2560
2561
2562
2563
2564
2565
2566
2572
2581
2582
2583
2584
2585
2586
2587
2588
2589
2590
2591
2592
2593
2594
2595
2596
2597
2602
2603
2604
2605
2606
2607
2608
2609
2610
2611
2612
2613
2614
2626
2627
2628
2629
2630
2631
2632
2633
2634
2638
2640
2643
2658
2659
2660
2661
2662
2663
2664
2665
2672
2673
2676
2677
2679
2680
2687
2688
2689
2690
2691
2692
2708
2709
2710
2711
2712
2716
2717
2724
2725
2726
2727
2738
2739
2740
2741
2742
2743
2744
2748
2749
2750
2751
2752
2753
2760
2761
2762
2763
2764
2765
2766
2767
2768
2769
2770
2771
2772
2782
2783
2801
2802
2803
2804
2805
2806
2807
2808
2809
2810
2811
2812
2813
2814
2815
2816
2817
2821
2822
2823
2824
2825
2832
2833
2834
2835
2836
2837
2838
2842
2843
2844
2845
2858
2859
2860
2861
2862
2863
2873
2874
2875
2876
2877
2878
2879
2880
2893
2894
2895
2896
2897
2898
2899
2900
2901
2902
2903
2904
2905
2906
2907
2908
2909
2910
2911
2912
2913
2914
2915
2916
2917
2918
2919
2920
2937
2956
2957
2958
2959
2960
2961
2962
2963
2983
2987
2988
2989
2993
3003
3004
3005
3006
3007
3008
3009
3025
3026
3027
3028
3035
3036
3037
3038
3039
3040
3041
3042
3043
3044
3045
3046
3049
3051
3053
3055
3056
3057
3061
3062
3064
3066
3067
3068
3069
3070
3071
3072
3073
3075
3076
3078
3079
3080
3081
3086
3089
3090
3091
3092
3093
3094
3095
3096
3097
3098
3101
3102
3103
3104
3106
3107
3108
3109
3110
3111
3112
3113
3114
3115
3116
3119
3120
3121
3122
3123
3124
3125
3126
3127
3128
3129
3130
3131
3132
3134
3135
3136
3137
3138
3139
3140
3141
3142
3143
3144
3145
3146
3147
3148
3149
3150
3151
3152
3153
3155
3156
3158
3159
3160
3161
3166
3167
3168
3169
3170
3171
3172
3173
3174
3175
3176
3177
3178
3179
3180
3181
3182
3183
3184
3185
3186
3187
3188
3190
3192
3197
3198
3199
3200
3201
3202
3203
3204
3205
3206
3207
3208
3209
3210
3213
3214
3215
3216
3218
3219
3220
3221
3222
3223
3224
3225
3226
3228
3230
3231
3232
3233
3234
3235
3236
3237
3238
3247
3248
3249
3250
3251
3252
3253
3254
3255
3256
3257
3258
3259
3260
3261
3262
3263
3264
3265
3266
3267
3268
3269
3270
3271
3272
3273
3274
3275
3276
3277
3278
3283
3284
3285
3286
3287
3288
3289
3290
3291
3293
3294
3295
3296
3297
3298
3299
3300
3301
3302
3303
3304
3305
3306
3307
3308
3309
3310
3311
3312
3313
3317
3318
3319
3324
3325
3326
3327
3328
3329
3330
3331
3332
3333
3334
3335
3336
3337
3338
3339
3340
3341
3342
3343
3344
3345
3346
3347
3348
3351
3352
3353
3354
3355
3356
3357
3358
3359
3360
3361
3362
3363
3364
3365
3366
3367
3368
3369
3370
3371
3372
3373
3374
3375
3376
3377
3378
3379
3380
3381
3409
3413
3422
3426
3427
3429
3431
3434
3435
3439
3441
3442
3443
3444
3445
3447
3449
3450
3457
3459
3460
3494
3495
3496
3497
3504
3510
3526
3527
3538
3539
3540
3547
3548
3549
3555
3556
3557
3558
3559
3560
3561
3564
3568
3577
3578
3579
3580
3581
3582
3583
3584
3592
3593
3596
3597
3599
3600
3601
3602
3603
3604
3605
3606
3607
3622
3623
3624
3631
3632
3633
3634
3635
3636
3837
3843
3845
3848
3866
3868
3871
3872
3883
3884
3885
3886
3889
3890
3891
3893
3894
3898
3899
3912
3913
3914
3915
3916
3917
3918
3919
3923
3924
3926
3928
3929
3930
3931
3932
3933
3934
3935
3942
3947
3948
3949
3953
3954
3956
3958
3965
3966
3970
3983
3984
3985
4004
4005
4006
4049
4088
4089
4090
4126
4127
4128
4129
4130
4156
4157
4174
4175
4176
4202
4203
4217
4218
4219
4220
4221
4252
4253
4254
4255
4416
4417
4418
4419
4420
4421
4422
4423
4424
4467
4468
4507
4508
4510
4511
4512
4515
4516
4517
4518
4519
4520
4521
4522
4523
4524
4525
4526
4527
4528
4529
4530
4531
4543
4545
4546
4547
4549
4550
4551
4552
4553
4554
4555
4556
4557
4558
4559
4560
4561
4562
4563
4564
4565
4566
4567
4568
4569
4570
4571
4582
4583
4584
4585
4586
4587
4588
4589
4590
4591
4592
4593
4594
4595
4596
4597
4598
4599
4600
4601
4602
4603
4604
4607
4608
4609
4610
4611
4612
4613
4614
4615
4616
4617
4618
4619
4620
4626
4627
4628
4629
4630
4631
4632
4633
4634
4635
4636
4637
4638
4639
4640
4641
4642
4643
4644
4645
4646
4647
4648
4649
4650
4651
4652
4653
4654
4655
4656
4657
4658
4659
4660
4661
4662
4663
4664
4665
4666
4667
4668
4669
4670
4671
4672
4673
4674
4675
4676
4677
4678
4679
4680
4681
4682
4683
4684
4685
4686
4687
4688
4689
4690
4691
4828
4829
4830
4831
4832
4833
4836
4837
4838
4839
4840
4841
4842
4843
4844
4845
4846
4847
4848
4849
4850
4851
4852
4853
4854
4855
4856
4905
4906
4907
4908
4909
4910
4911
4912
4913
4914
4915
4916
4917
4918
4919
4920
4937
4938
4939
4940
4941
4942
4943
4944
4945
4946
4947
4948
4949
4950
4951
4952
4953
4954
4955
4956
4957
4991
4992
4993
4994
4996
4997
4998
4999
5000
5001
5002
5003
5004
5010
5012
5014
5015
5016
5017
5018
5019
5020
5021
5022
5023
5024
5025
5026
5027
5038
5042
5046
5048
5049
5051
5060
5061
5062
5063
5067
5068
5069
5070
5075
5076
5077
5078
5079
5080
5094
5095
5096
5097
5098
5099
5100
5101
5102
5103
5104
5105
5106
5107
5108
5109
5110
5111
5112
5113
5120
5121
5122
5123
5124
5125
5126
5127
5128
5129
5216
5240
5251
5252
5261
5262
5263
5264
5265
5266
5267
5294
5295
5296
5297
5298
5299
5300
5301
5302
5303
5325
5326
5327
5334
5335
5348
5349
5350
5351
5352
5431
5432
5440
5450
5453
5457
5460
5461
5462
5463
5467
5491
6014
6016
6042
6048
6054
6060
)


2274
(
1
5
18
442
443
444
445
450
451
456
475
476
477
478
479
480
481
482
483
521
522
523
542
543
544
545
582
583
593
600
601
602
603
604
641
642
643
644
645
753
754
755
756
757
758
759
760
761
762
769
770
771
802
803
804
805
806
807
808
810
811
812
813
814
815
816
817
818
819
820
821
822
823
824
825
827
829
830
831
832
834
835
836
837
838
839
840
841
842
843
844
845
846
847
848
849
850
851
852
853
854
855
856
857
858
859
860
861
862
863
864
865
866
867
868
869
870
871
872
873
874
875
876
877
878
879
880
881
882
883
884
885
886
887
888
889
890
891
892
893
894
895
896
897
898
899
900
901
902
903
904
905
906
907
908
909
910
911
912
913
914
915
916
917
918
919
920
921
922
923
924
925
926
927
928
929
930
931
932
933
934
935
936
937
938
939
940
941
942
943
944
945
946
947
948
949
950
951
952
953
954
955
956
957
958
959
960
961
962
963
964
965
966
967
968
969
970
971
972
973
974
975
976
977
978
979
980
981
982
983
984
985
986
987
988
989
990
991
992
993
994
995
996
997
998
999
1000
1001
1002
1003
1004
1005
1006
1007
1008
1009
1010
1011
1012
1013
1014
1015
1016
1017
1018
1019
1020
1021
1022
1023
1024
1025