/*--------------------------------*- C++ -*----------------------------------*\
  =========                 |
  \\      /  F ield         | OpenFOAM: The Open Source CFD Toolbox
   \\    /   O peration     | Website:  https://openfoam.org
    \\  /    A nd           | Version:  8
     \\/     M anipulation  |
\*---------------------------------------------------------------------------*/
/*   Windows 32 and 64 bit porting by blueCAPE: http://www.bluecape.com.pt   *\
|  Based on Windows porting (2.0.x v4) by Symscape: http://www.symscape.com   |
\*---------------------------------------------------------------------------*/
FoamFile
{
    version     2.0;
    format      ascii;
    class       scalarListList;
    location    "constant/vegetation";
    object      F;
}
// * * * * * * * * * * * * * * * * * * * * * * * * * * * * * * * * * * * * * //


774
(

1409
(
0.00033418098
0.0014326974
0.00012475061
0.00026072523
0.00027751183
0.012627114
0.0004855541
0.00014905173
0.00031968385
0.0019889292
0.00012811518
0.0015382568
0.0052296944
0.00021080112
9.9050569e-05
0.00054962159
0.00016484921
0.00027272743
0.00023033387
9.373365e-05
0.00033878904
9.2093377e-05
0.00010108965
0.00036548662
0.0003148128
0.0012282614
0.00021691956
4.778793e-05
0.00029934338
0.00028718755
0.00011652179
0.0003450743
9.7333891e-05
9.2153201e-05
9.7835531e-05
0.00033164173
7.8784087e-05
9.4612828e-05
7.2640098e-05
0.00020693355
0.00011266681
4.9321376e-05
6.774925e-05
4.7210115e-05
7.410698e-05
0.00022860619
0.00023377714
0.00023526328
0.00024067692
0.00018314217
0.00019107493
0.00019921912
0.00020706977
0.00021463434
0.00022190041
0.00020631001
0.00020788186
0.00021471879
0.00021641775
4.7591457e-05
7.5593133e-05
5.0932081e-05
8.0929144e-05
4.7021064e-05
4.8705446e-05
4.981799e-05
5.0321054e-05
4.542447e-05
4.8611082e-05
7.9124411e-05
0.00019149813
4.8121645e-05
4.9220585e-05
0.00016938255
0.00018309763
7.7397182e-05
0.00016192197
4.64873e-05
4.7548201e-05
0.00022292696
0.00024773358
0.00024552571
0.0002405021
0.00023841613
0.00022475799
0.00023281455
0.00023085862
6.414203e-05
6.3369148e-05
6.4964945e-05
6.3281199e-05
5.5324137e-05
5.6395503e-05
6.049086e-05
9.6046207e-05
5.2040087e-05
8.7891661e-05
8.264802e-05
5.9502903e-05
8.9554512e-05
9.4512118e-05
6.2519204e-05
6.2385442e-05
5.4240771e-05
5.4659744e-05
5.7452225e-05
5.571804e-05
6.1452689e-05
5.9763318e-05
5.3143792e-05
5.1415706e-05
5.8487001e-05
5.8787354e-05
0.00010315212
9.9045046e-05
5.772667e-05
5.2799836e-05
4.9667538e-05
8.4435615e-05
5.382127e-05
5.6784916e-05
0.00010182645
6.4180782e-05
0.00019986307
0.00021618615
6.1634488e-05
5.3589581e-05
5.6761872e-05
6.0713312e-05
5.2505972e-05
5.7783856e-05
0.00021683165
6.120782e-05
6.1990958e-05
0.00017680782
0.00020811696
0.00018414127
8.6137173e-05
0.00023842749
0.00010049512
0.00021107112
0.00023142453
9.760029e-05
0.00020484878
0.00019130851
9.1263021e-05
0.00022398105
0.00019823548
9.2868688e-05
6.0387401e-05
5.9533113e-05
5.8643932e-05
5.1766361e-05
5.0720461e-05
5.4829286e-05
5.5815797e-05
0.00019427723
0.00020257896
0.00021406993
0.00017417396
0.00015434885
0.00022302102
0.00020901361
0.00018162403
0.00015173531
0.00018060689
0.00015516144
0.00014026493
0.00018855796
0.00018234571
0.00016798971
0.00018141933
4.1452198e-05
5.8884802e-05
0.00013925233
0.00015333185
4.5879818e-05
5.3229687e-05
3.2881986e-05
2.8714539e-05
0.00016759734
0.00013228982
0.00014885404
0.00011708636
0.00012447551
0.00011362676
5.4151811e-05
5.4237257e-05
3.3405035e-05
0.00014848105
0.00016008351
0.00015309152
0.00019039038
0.00018228165
0.0001859233
0.00019843252
0.00020634571
0.00021075407
0.00021873551
0.00022151566
0.00022643957
0.00017758495
0.00016615332
0.00016933906
4.2174454e-05
4.0755327e-05
4.1448954e-05
2.9146172e-05
3.3496597e-05
3.3591962e-05
3.4131761e-05
3.4646149e-05
3.5425247e-05
0.00014768944
0.00015064746
0.00015829351
0.00015339418
0.00016125509
5.5744492e-05
5.4536846e-05
6.8071511e-05
4.7335444e-05
5.5319684e-05
3.056967e-05
3.1044538e-05
5.0912604e-05
5.5761037e-05
5.8853857e-05
4.7518287e-05
0.00017302391
0.00017952093
0.00017895759
0.00018643156
0.00013903536
5.7403583e-05
0.00016356875
0.00016661468
0.00019512305
6.1590901e-05
6.0470283e-05
0.00014373218
0.00012860615
5.4677134e-05
0.00018620764
0.00019395623
5.7543338e-05
5.5978816e-05
0.00010102184
0.00012865354
0.00010876018
0.00012545377
5.9785637e-05
4.8499532e-05
0.00013244863
0.00014078291
9.1457572e-05
4.6125509e-05
4.4828846e-05
4.9444981e-05
0.00011195844
4.7337225e-05
0.00017049237
0.00019425417
0.00020185525
0.00018725572
0.00019427737
6.6526757e-05
6.7961787e-05
0.00020927955
0.00021644313
0.00020202625
0.00021013163
0.00022315383
0.00022941378
0.00021697106
0.00018099241
0.0001912338
0.00020247807
0.00021619404
0.00020323202
0.0002102557
6.6753317e-05
0.00017836368
0.00017391964
0.00018146604
0.00020156897
0.00018882865
0.00019607814
4.8096751e-05
5.3223757e-05
4.6958774e-05
6.1228918e-05
0.00015301648
0.00014750465
0.00013870608
3.422893e-05
0.00013969417
0.00013565499
0.00014593139
0.00016270764
0.00016626115
0.00015871649
0.00017473465
0.00016388911
0.00015743886
0.00015509254
0.000144355
0.00015139595
6.2462287e-05
4.7536668e-05
4.7890321e-05
0.00015586121
0.00014804165
0.00016391864
0.00015673358
0.00016490423
0.00014879492
0.00013944524
0.00014007567
0.00017220552
0.00019778328
0.00018065838
0.00018186776
0.00017330046
0.00019922795
0.00018920723
0.00019053294
6.1889777e-05
3.894127e-05
3.9985122e-05
3.3973239e-05
5.4190786e-05
3.4922484e-05
6.0302131e-05
5.5605594e-05
3.7912389e-05
3.6898635e-05
3.3072752e-05
3.3621764e-05
3.5899777e-05
3.4535867e-05
6.3560212e-05
3.2491357e-05
5.1729945e-05
3.3364486e-05
3.1086287e-05
3.1626282e-05
3.4111699e-05
4.8721144e-05
2.9750619e-05
3.1372658e-05
3.2264479e-05
3.1725188e-05
3.871497e-05
3.1797645e-05
3.274076e-05
3.1207946e-05
3.2113955e-05
5.0022989e-05
4.8321176e-05
3.145813e-05
3.0225831e-05
3.8476699e-05
0.00015042251
3.9505984e-05
3.7462227e-05
0.00014271875
3.6465223e-05
3.2797696e-05
3.5487204e-05
0.00013293334
0.00015833464
3.7173374e-05
3.816849e-05
0.00012616486
5.8714782e-05
0.00013438824
0.00011912184
5.7204307e-05
3.1746545e-05
3.6192794e-05
3.5228865e-05
3.4282958e-05
2.9945825e-05
3.2141654e-05
3.152302e-05
3.2118396e-05
3.1467668e-05
3.1607154e-05
8.6701967e-05
0.00012184817
0.00010893429
4.648183e-05
7.3870396e-05
4.3189568e-05
6.8606997e-05
4.2110869e-05
6.6927596e-05
4.59248e-05
4.537834e-05
4.4279171e-05
4.2672222e-05
4.1041041e-05
4.1605849e-05
4.4366371e-05
7.2078765e-05
4.1225432e-05
4.0195043e-05
6.520091e-05
4.4834653e-05
4.3748777e-05
4.0549444e-05
0.00017472568
0.0001544883
0.00016645061
7.0374737e-05
0.00014714025
0.00013993639
4.3312822e-05
4.2265712e-05
3.9175698e-05
0.00022257745
0.00011300737
0.00012395312
6.3857242e-05
0.00015587937
0.00011302502
4.2724153e-05
4.6080493e-05
9.0064259e-05
5.1302616e-05
0.00017194646
5.7591215e-05
0.00013286613
7.1353511e-05
0.00011857984
0.00011701885
0.0015837669
0.0018149502
0.00055314742
5.2392614e-05
4.2477241e-05
0.00093751317
0.0027086593
0.00023921958
0.00018519474
5.0789027e-05
0.00018021731
0.00010455851
0.0001528574
0.00070344433
4.2421571e-05
0.00015111039
4.898292e-05
5.3623489e-05
6.106725e-05
0.00030668223
4.0533019e-05
0.0002148926
0.0001013953
0.00019186464
0.00010632791
0.00075872312
3.8024428e-05
4.7641424e-05
7.2234546e-05
3.5720344e-05
0.00015701594
7.763338e-05
0.00012092611
8.7535239e-05
0.00013180542
0.00095634112
3.2899543e-05
0.00011076285
0.00050368513
0.00028821842
0.00010601526
0.00011178845
0.00032175219
5.2465529e-05
3.0023702e-05
4.799982e-05
9.7939144e-05
0.00021333408
2.8647725e-05
9.700278e-05
3.1067999e-05
0.00010042275
7.3658718e-05
4.2556673e-05
5.6549331e-05
0.0002416793
0.00014332548
0.00010523883
9.3006429e-05
4.7954154e-05
3.4803285e-05
3.9652315e-05
3.9871717e-05
4.5234515e-05
3.6270806e-05
5.2028206e-05
5.0625261e-05
1.7681692e-05
3.6109786e-05
0.001250825
0.00042210073
8.5243496e-05
8.4131671e-05
7.8839618e-05
2.6630426e-05
2.9206926e-05
0.00010218286
3.0851187e-05
0.00038741861
5.2816715e-05
3.0638675e-05
8.6286412e-05
8.876366e-05
6.1038471e-05
2.7937449e-05
5.9914211e-05
0.00010779317
3.0286158e-05
3.123568e-05
9.3285594e-05
0.00015714373
0.00013318469
3.749476e-05
2.8350532e-05
2.6297706e-05
2.446815e-05
4.5602204e-05
8.9130045e-05
2.7236758e-05
2.5783061e-05
4.2257178e-05
5.766466e-05
2.0513471e-05
2.5024652e-05
1.5606296e-05
2.291401e-05
0.00013367158
0.00014048595
0.00010713772
0.00011296499
0.00010911579
0.00011241479
0.00011730376
0.0001168351
0.00012155087
0.0001131404
0.00013746043
0.00013252743
0.00012964677
0.00012818147
0.00011946311
0.00012564671
2.3928078e-05
2.3064827e-05
2.8566196e-05
4.1658033e-05
3.9329199e-05
2.6353765e-05
2.637368e-05
4.0367916e-05
2.6777304e-05
2.8493271e-05
2.5832945e-05
9.4035189e-05
2.6984087e-05
2.6097762e-05
2.7225293e-05
2.6786653e-05
4.0963681e-05
2.2805553e-05
2.5055629e-05
2.7101047e-05
2.6459383e-05
2.6120856e-05
2.581219e-05
2.5231505e-05
2.567443e-05
2.5853556e-05
2.7052061e-05
2.5592114e-05
2.6734577e-05
2.6228353e-05
2.7521611e-05
3.7647061e-05
2.4441037e-05
2.5188035e-05
4.2104635e-05
2.3260319e-05
2.3570307e-05
3.8558617e-05
7.7114834e-05
3.6476366e-05
8.4483198e-05
4.340081e-05
9.955058e-05
0.00010269511
2.6179578e-05
2.5733321e-05
2.6711572e-05
2.640684e-05
2.7458802e-05
4.3074822e-05
3.9012974e-05
2.4310044e-05
2.6305657e-05
2.5741313e-05
0.00010721303
4.5151882e-05
2.4856758e-05
2.6585025e-05
2.5950279e-05
3.7335967e-05
4.7218482e-05
4.5870884e-05
4.5423518e-05
2.911829e-05
2.8292589e-05
2.7997677e-05
9.571332e-05
4.909048e-05
3.0034813e-05
3.0227459e-05
4.7623702e-05
2.9368275e-05
2.6941726e-05
4.6788681e-05
4.6357188e-05
2.6176377e-05
2.5903218e-05
4.8765173e-05
2.7802443e-05
2.7984997e-05
2.7175961e-05
0.0001199559
2.8854924e-05
2.8579157e-05
2.7713086e-05
0.00012219423
4.839231e-05
0.00012602817
2.9826909e-05
3.0405345e-05
2.9604568e-05
2.6696675e-05
0.00010127027
9.9178517e-05
2.6441498e-05
4.4430466e-05
2.5651241e-05
4.8026438e-05
0.00010309473
0.00012423636
0.0001047864
2.7606795e-05
0.00014322236
0.00014576272
0.00013504623
0.00013737454
4.9441125e-05
0.00010632374
2.8154332e-05
2.7398058e-05
5.0203082e-05
4.9959293e-05
3.0857572e-05
3.0718262e-05
2.8582613e-05
4.9739432e-05
2.8452694e-05
0.00010409569
4.9316461e-05
3.1009286e-05
3.1204633e-05
3.0568485e-05
2.8736274e-05
2.8309667e-05
4.886875e-05
0.00010715922
0.00012663706
2.9291173e-05
8.7875392e-05
0.00010036969
0.00011081596
3.17288e-05
5.1680649e-05
9.4343982e-05
0.00016710069
9.7829998e-05
8.3920752e-05
5.8180582e-05
5.1492072e-05
7.3500612e-05
4.0380892e-05
7.9702098e-05
2.1816944e-05
6.8040252e-05
5.9567115e-05
9.2771058e-05
3.3289796e-05
4.6154421e-05
3.1514485e-05
0.00010153431
3.7455168e-05
3.4624138e-05
7.5449404e-05
0.00011242175
1.1068377e-05
3.7799633e-05
3.8115166e-05
2.0493584e-05
8.32301e-05
8.3746455e-05
5.9714993e-05
3.1109895e-05
9.8579022e-05
0.00022392527
0.00025909146
0.00025623544
0.00010173107
2.839524e-05
0.00071089208
2.2585906e-05
8.7176624e-05
6.8152568e-05
8.0384861e-05
9.2589717e-05
2.1664241e-05
9.2734763e-05
3.3165669e-05
2.4981441e-05
7.8176786e-05
7.2056004e-05
9.8795174e-05
0.00068565832
0.00075852928
2.2216048e-05
2.0851046e-05
7.5690011e-05
5.7267659e-05
9.3746549e-05
4.7000938e-05
2.7468527e-05
2.7836861e-05
9.0312886e-05
2.6036567e-05
5.0177317e-05
7.5733571e-05
7.6955258e-05
0.00023202357
3.1664729e-05
2.6588315e-05
2.4148539e-05
0.00011117174
3.7805605e-05
7.490465e-05
2.0638732e-05
2.5790952e-05
1.9463084e-05
2.2884004e-05
2.4023355e-05
2.9661829e-05
2.3561753e-05
0.00038022442
8.6023853e-05
5.0409341e-05
2.4574367e-05
2.1732898e-05
1.7984796e-05
0.0011047147
0.0004823258
5.7486325e-05
8.4287012e-06
1.4981987e-05
1.7236234e-05
0.0011914575
2.3616498e-05
0.00012338164
5.7308397e-05
9.7491106e-05
4.4067972e-05
8.3195131e-05
2.6531624e-05
6.7807679e-05
1.966085e-05
3.4215852e-05
4.4719021e-05
7.4455093e-05
0.0020199843
0.00039632594
0.0085762635
0.0003695154
8.2858807e-05
8.4423699e-05
0.0001128344
0.0001048796
0.0033762359
0.0069481887
0.0086150976
0.00087069132
0.00095034221
0.0015580338
0.0017352139
0.00040993353
0.00034672877
0.00023261164
0.00026798046
0.00023377536
0.0070652269
0.0016742437
8.7381516e-05
0.019375633
0.022280306
9.329448e-05
0.00051327196
0.00040661508
6.7117741e-05
3.8809488e-05
0.00011630635
6.5936786e-05
7.0878925e-05
6.53503e-05
5.7615819e-05
0.00020627306
0.0055534366
8.1247399e-05
0.0012163751
0.0001211219
8.7380082e-05
0.00018999574
0.00018676922
0.00019498634
0.00020340027
0.00021150262
0.00021931048
0.00022682258
0.0002288147
0.00023533639
0.00024075941
0.0002339911
0.00019279672
0.00020145749
0.00019846682
0.00020714315
0.00021548916
0.00021894411
0.00021037816
0.00022353126
0.00023127512
0.00023513737
0.00022719304
4.4522188e-05
4.4994379e-05
5.0946323e-05
5.1504455e-05
5.2481253e-05
4.7002278e-05
4.7490147e-05
9.0098312e-05
4.8508216e-05
4.1365491e-05
4.5514285e-05
4.798927e-05
5.0515634e-05
4.9539844e-05
5.3443682e-05
5.048072e-05
4.6475123e-05
4.5613405e-05
4.9517183e-05
4.6633943e-05
5.8752858e-05
5.9535623e-05
5.8120572e-05
5.6213441e-05
6.1655152e-05
5.8901415e-05
5.5312049e-05
6.2280346e-05
5.7936512e-05
5.6513004e-05
6.0282079e-05
5.7265453e-05
5.5606024e-05
5.4714546e-05
5.7089154e-05
5.4071585e-05
6.0988348e-05
5.9302307e-05
6.1014505e-05
6.1625792e-05
5.4388442e-05
5.3204943e-05
6.2861138e-05
5.9896754e-05
4.5201226e-05
4.9968629e-05
4.6048952e-05
8.0073642e-05
5.2866356e-05
5.1913526e-05
4.8981176e-05
8.1762949e-05
0.00025136397
0.00024117245
0.0002341135
0.00024411023
5.7310656e-05
5.9651697e-05
0.00010045226
9.472564e-05
5.6472614e-05
5.3799842e-05
6.0355424e-05
6.2185227e-05
0.00010569016
0.0001938737
0.00022003069
7.5143334e-05
7.6348277e-05
0.00016454407
0.00017081274
0.00018683037
0.00020233512
0.00019413656
4.3147387e-05
8.6846578e-05
8.5153965e-05
0.00018570344
0.00017835876
4.8585212e-05
5.1406198e-05
4.4496828e-05
8.845109e-05
0.00019279668
0.00019963852
9.3240396e-05
9.1653673e-05
4.7618203e-05
5.5728164e-05
5.798304e-05
9.9074036e-05
9.7629221e-05
0.00021243618
0.00020618045
5.4913509e-05
5.8663343e-05
0.00010228956
0.00021871233
0.00010441634
0.00010323879
0.00021968862
0.00022875102
5.2315375e-05
6.0445514e-05
0.00021135528
0.00021091428
0.00020264387
7.8142236e-05
0.00022669721
0.00023642527
0.00022838182
0.00021894363
0.00024565544
0.00023866893
0.00024989648
0.00024272704
8.3514424e-05
0.00024707835
0.00024143669
0.00024708822
0.00025293464
0.00025218461
0.0002627626
0.00025659052
0.00025821142
0.00025212616
0.00025815976
0.00026826386
0.00026359296
0.00026433522
0.00025811872
0.0002474408
0.00025306699
0.0002698689
0.0002586165
9.6233366e-05
0.00010622858
6.8895631e-05
6.7160051e-05
0.00010660863
6.6476017e-05
0.00010554846
6.837346e-05
6.8079609e-05
6.7794378e-05
6.6349983e-05
6.574186e-05
6.5673124e-05
6.3624094e-05
7.1254018e-05
6.4324906e-05
6.3886611e-05
7.1155304e-05
6.9359916e-05
6.6347706e-05
6.3184424e-05
6.575493e-05
7.0529966e-05
7.0678923e-05
0.00010836845
7.0417043e-05
0.00010955719
6.7910923e-05
6.460871e-05
6.0190826e-05
6.475323e-05
6.1813675e-05
6.339795e-05
6.1401409e-05
6.9346697e-05
7.1214595e-05
6.9767378e-05
6.8550961e-05
6.663804e-05
6.3235196e-05
6.5227052e-05
6.2905167e-05
7.0926977e-05
6.9924012e-05
7.0116023e-05
6.9627585e-05
0.00010859
6.4084667e-05
6.3432045e-05
6.4111588e-05
6.2703193e-05
0.00010779383
7.1738867e-05
7.4304005e-05
6.8500054e-05
6.7288887e-05
0.00011153414
6.554487e-05
0.00010489793
0.00010954429
6.7554218e-05
6.6978265e-05
6.4949783e-05
0.00010856882
0.00010689445
0.00022543898
0.00010636998
0.00018812546
5.8682395e-05
6.2191689e-05
6.0946633e-05
7.0148971e-05
6.8965178e-05
6.2924741e-05
0.00023121975
6.2550744e-05
7.0137225e-05
6.9314947e-05
0.00025444467
0.00026057648
0.00027078429
0.00026608123
0.00024491971
0.00025083858
0.00010435749
0.0002220889
0.00026058953
0.00023092232
0.00025611812
0.00010767388
0.00022680803
6.5749849e-05
6.5244111e-05
6.4690588e-05
6.2733798e-05
0.00026230744
0.00011034356
0.00011093833
0.00023320687
0.00025252795
0.00022664366
0.00010707676
0.00027238735
0.00026143415
7.2080655e-05
7.039752e-05
6.6198999e-05
6.6597611e-05
6.6936359e-05
0.00010606208
0.0023592865
0.00059538575
0.00017637071
0.00017487626
0.00017016562
6.8094126e-05
4.9123388e-05
2.4688929e-05
3.8796145e-05
0.0054835825
0.0022786389
0.001167464
0.0080173527
0.0010268618
0.00047603539
0.00086693597
0.00040608034
0.0011059221
0.00014091354
0.00077243079
0.00011959403
0.00033467473
9.6827393e-05
4.3032974e-05
0.00016655661
0.0001139122
3.1864141e-05
9.8448358e-05
0.00018692379
6.965718e-05
0.0033050479
0.00027576658
3.5493203e-05
2.4959751e-05
3.4698453e-05
1.2780375e-05
2.1687342e-05
4.0064142e-05
3.3700716e-05
3.1870869e-05
1.3646142e-05
0.0039754189
0.016135853
0.031581295
0.024034428
0.064915596
0.041458218
0.098921297
0.024520653
0.083967074
0.0019685708
0.0045348496
0.0047839015
7.4147185e-05
1.9460435e-05
5.3160304e-05
0.00091437137
0.0035908661
0.0021533632
0.0016196574
0.0013101044
5.3992339e-05
7.9618601e-05
0.00011199833
9.4262075e-05
0.00014578514
0.00018160592
0.00023424902
0.00039140979
0.000399179
0.00019619677
0.000676515
0.00078261343
0.00055602291
0.00034877377
0.00016191654
0.00088971696
0.0011856478
0.0025893459
0.0020050538
0.00012316567
0.0017162664
0.0034610418
0.0029683103
0.0019919529
0.0035168152
0.0097187255
0.001825597
0.00024272565
0.00014624363
9.2352606e-05
0.00025812716
0.0004030533
0.00078038903
0.00065603066
0.00046487374
0.00068450221
0.0010302968
0.00038580235
0.0012598646
0.0040059435
0.0024814312
0.0013224761
0.00093940891
0.0014545102
0.0028297557
0.00367381
0.0051845088
0.005229279
0.0048528232
0.0052551305
0.0082750734
0.0064507522
0.0067426622
0.0090604518
0.00045117568
0.010877851
0.0090878073
0.0073738285
0.0067252825
0.0052309487
0.0073847769
0.010854362
0.0082280465
0.0050454785
0.0090627845
0.0064054176
2.0719444e-05
0.0032007336
0.00048693315
0.00035702935
0.0020862515
0.0019912437
0.00025755953
0.00011160747
0.00011056171
0.00025188893
0.00011407207
6.87889e-05
0.00030690067
0.00057189774
0.00023605389
0.00018884086
0.00075075244
0.00010790509
0.0001316453
0.00047888976
0.0020383304
5.4004725e-05
1.5579276e-05
4.319777e-05
0.0067352948
0.005952393
1.0118383e-05
2.5225286e-05
9.7561522e-06
7.8520697e-05
0.00013885875
7.9758656e-05
3.2322168e-05
0.00029008788
7.4696651e-05
0.00021009461
0.00034831366
6.0807394e-05
6.3226638e-05
0.0014868207
1.7119825e-05
2.4213255e-05
9.0054083e-06
0.0001845654
8.3284117e-05
6.2515625e-06
1.385919e-05
3.886992e-06
5.3557113e-06
1.8181979e-05
4.5260091e-06
6.8791601e-07
2.6839207e-06
4.8840302e-06
0.002994149
0.0005447299
7.9418993e-06
5.6466999e-06
0.00017616677
1.8072601e-06
9.3174707e-05
0.00087644909
1.5492101e-05
5.3521001e-05
6.1818076e-06
0.00010977982
6.8449216e-05
2.2426982e-05
0.00018133599
3.6821458e-05
2.215586e-05
1.3387722e-05
1.4335382e-05
2.4879451e-05
5.9576845e-07
2.0361598e-06
1.847084e-06
0.00019468362
8.670419e-05
0.00013072297
5.2923359e-05
6.8454969e-05
6.0136867e-05
1.0195268e-05
4.3710182e-05
6.6363459e-05
5.8214209e-05
2.2703276e-05
6.034788e-05
7.013968e-05
1.2921399e-05
2.3810611e-05
1.9227302e-05
3.1891817e-05
3.2039472e-05
1.7803662e-05
5.121867e-05
0.0002588907
6.5001103e-06
6.0748405e-05
2.9557021e-05
3.3654705e-05
0.00018339404
4.4315233e-05
0.00037524741
0.00014953819
8.6288098e-06
8.3430659e-06
7.2568454e-06
1.5471703e-05
2.4450656e-05
6.3391806e-05
7.9737711e-05
7.6570741e-06
4.4014577e-05
1.8532593e-05
1.0160489e-05
4.6104685e-06
0.00028431442
1.1559964e-05
8.5554478e-06
1.2956427e-05
1.4771672e-05
5.408041e-05
7.811896e-06
1.3567858e-05
0.0017600154
6.1330871e-05
2.1754224e-05
0.00045404066
2.9503302e-05
4.7436088e-05
5.5851869e-05
0.0011894617
0.00011625276
2.0243615e-05
1.5881033e-05
2.3096502e-05
2.0660928e-06
1.692588e-05
8.7471774e-06
9.2349427e-06
1.0055439e-05
1.4212958e-05
1.73698e-05
2.3297395e-05
3.7830913e-05
0.00053457157
0.00095048739
0.0012458648
0.0020675992
0.0024362043
0.0025333016
0.0043110151
0.025670111
0.022313818
0.011696832
0.00010042869
0.00024058303
0.015029301
0.0056685712
0.00047410263
0.0046376259
0.0011129433
0.0023992739
0.00071015759
0.00043497382
0.00039952693
5.5337355e-05
0.0003307718
0.014628423
9.3145596e-06
4.3355845e-06
2.1277283e-05
3.3682537e-05
0.0010664036
6.6826483e-05
1.7492523e-05
1.158469e-05
0.0096100429
)


1409
(
0.00032428693
0.0014088187
0.00012055223
0.00024937482
0.00026806101
0.01297699
0.00047396512
0.00014521806
0.00030920263
0.0019963904
0.00012536036
0.0015204337
0.0052695401
0.00020306431
9.6817762e-05
0.00054074588
0.00016007956
0.00026769728
0.00022252842
9.1159205e-05
0.00032770013
8.9379164e-05
9.8507293e-05
0.00035623275
0.00030273244
0.0012071491
0.0002103472
4.5748946e-05
0.00029130241
0.00027601784
0.00011194263
0.00033515659
9.4013217e-05
8.8972087e-05
9.3605547e-05
0.00032335071
7.6342809e-05
9.0926086e-05
6.9986977e-05
0.00020038659
0.00010832894
4.7259251e-05
6.5212389e-05
4.5230327e-05
7.1466208e-05
0.00023590837
0.00024014808
0.00024288569
0.00024732998
0.00019506571
0.00020288108
0.0002108237
0.000218354
0.00022547982
0.00023218907
0.00021062616
0.00021128858
0.00021929955
0.00022003394
4.7445491e-05
7.5889597e-05
5.0769353e-05
8.125573e-05
4.6977357e-05
4.8553976e-05
4.9660934e-05
5.0271535e-05
4.5477434e-05
4.866862e-05
7.944073e-05
0.00019373688
4.8076042e-05
4.9173046e-05
0.0001706814
0.00018519299
7.7703746e-05
0.0001631382
4.6541792e-05
4.7604216e-05
0.00022777081
0.0002521496
0.00025111668
0.00024472937
0.00024376864
0.00022858253
0.00023684369
0.00023596097
6.3905125e-05
6.3292245e-05
6.4722926e-05
6.3049569e-05
5.5138205e-05
5.6203704e-05
6.0275843e-05
9.6461477e-05
5.1871628e-05
8.8258574e-05
8.2984465e-05
5.9293611e-05
8.9931201e-05
9.491822e-05
6.2444365e-05
6.2159227e-05
5.4060689e-05
5.4601976e-05
5.7254561e-05
5.5658148e-05
6.1232025e-05
5.9694835e-05
5.2969545e-05
5.1364172e-05
5.8283508e-05
5.8721018e-05
0.00010360996
9.9478283e-05
5.7796879e-05
5.2863317e-05
4.9726585e-05
8.478238e-05
5.3886177e-05
5.6853874e-05
0.00010227637
6.4101854e-05
0.00020224746
0.00021886255
6.1561744e-05
5.3533917e-05
5.6699838e-05
6.0642691e-05
5.2452388e-05
5.7719675e-05
0.00021868835
6.128241e-05
6.2066458e-05
0.00017819047
0.00021064776
0.0001856081
8.6493824e-05
0.00024151673
0.00010093706
0.00021285777
0.00023438212
9.8024868e-05
0.00020656026
0.00019285892
9.1649804e-05
0.00022680033
0.00019986781
9.3265003e-05
6.0461003e-05
5.9605652e-05
5.8715337e-05
5.1828388e-05
5.0781008e-05
5.4895586e-05
5.5883447e-05
0.00019910937
0.00020772302
0.00022068813
0.00017903237
0.00016388575
0.00023116167
0.00021639939
0.00019179537
0.00015949864
0.00019004122
0.0001645903
0.0001471585
0.00019665341
0.00019085704
0.00017568782
0.00018906192
4.3740814e-05
6.193521e-05
0.00014739926
0.0001613157
4.8414341e-05
5.6034647e-05
3.4556722e-05
3.0160576e-05
0.00017437447
0.00013760297
0.00015526747
0.00012252228
0.00012987145
0.00011863548
5.6924608e-05
5.6643601e-05
3.5055629e-05
0.0001547228
0.00016641283
0.00015900446
0.00019594217
0.00018748285
0.00019044809
0.00020433958
0.00021260942
0.0002162115
0.00022450453
0.00022848152
0.00023251451
0.00018180964
0.00017068001
0.00017327345
4.4431123e-05
4.2985922e-05
4.3647405e-05
3.0571644e-05
3.5252939e-05
3.5321774e-05
3.5837037e-05
3.630347e-05
3.7139089e-05
0.00015206987
0.00015455313
0.00016250207
0.00015678526
0.00016491108
5.8922607e-05
5.7608435e-05
7.1462608e-05
4.999255e-05
5.8325615e-05
3.2159459e-05
3.2612824e-05
5.3388611e-05
5.8268798e-05
6.2009676e-05
4.975095e-05
0.00018401759
0.0001903432
0.00019047462
0.00019781591
0.00014722928
6.0620336e-05
0.00017382133
0.00017653302
0.00020365355
6.5205616e-05
6.3983048e-05
0.00015230252
0.00013589698
5.7660748e-05
0.00019241584
0.00020055701
6.0487295e-05
5.8900756e-05
0.00010673236
0.00013604305
0.0001144668
0.00013127415
6.2737142e-05
5.0769912e-05
0.00013966578
0.00014859192
9.6367628e-05
4.860934e-05
4.7163487e-05
5.1981037e-05
0.00011751483
4.9687021e-05
0.00017593108
0.0002054348
0.00021272229
0.00019789145
0.00020459327
7.0275551e-05
7.1651179e-05
0.00021972503
0.00022635473
0.00021197024
0.00021962111
0.00023241277
0.00023790697
0.00022584814
0.00018960494
0.00020049807
0.00021148144
0.00022396375
0.00021128331
0.00021872626
7.0043475e-05
0.00018418332
0.0001802858
0.00018825229
0.00020856329
0.00019603545
0.00020370702
5.0415783e-05
5.5701336e-05
4.9122353e-05
6.452612e-05
0.0001604411
0.00015452351
0.0001457836
3.6043706e-05
0.00014483627
0.00014122601
0.00015143495
0.00016777768
0.000172212
0.00016426634
0.00018195124
0.00017126479
0.00016438055
0.0001598093
0.00014916139
0.00015656366
6.5701118e-05
5.013622e-05
5.0470229e-05
0.00015870017
0.00015066916
0.00016698065
0.00015897147
0.00016731864
0.0001508654
0.00014185559
0.00014197428
0.00017550202
0.0002018363
0.0001841994
0.00018466111
0.00017590034
0.00020242639
0.00019300108
0.00019352632
6.2112569e-05
3.8835244e-05
3.9874545e-05
3.3887869e-05
5.437481e-05
3.483328e-05
6.051677e-05
5.5796634e-05
3.7810775e-05
3.6801297e-05
3.2991022e-05
3.359802e-05
3.580658e-05
3.4510918e-05
6.3791684e-05
3.252594e-05
5.1902954e-05
3.3400284e-05
3.1013765e-05
3.1550894e-05
3.4210788e-05
4.8879849e-05
2.9683155e-05
3.1353387e-05
3.2186119e-05
3.1704704e-05
3.8628805e-05
3.1888119e-05
3.2777375e-05
3.1297482e-05
3.2148981e-05
5.0188813e-05
4.8552246e-05
3.1601312e-05
3.0364896e-05
3.8446359e-05
0.00015198895
3.9474158e-05
3.7433318e-05
0.00014416775
3.643769e-05
3.2775092e-05
3.5460992e-05
0.00013384429
0.0001600248
3.721453e-05
3.8211059e-05
0.00012700843
5.8921325e-05
0.00013571779
0.00011989855
5.7403248e-05
3.178012e-05
3.6232563e-05
3.5267275e-05
3.432004e-05
2.9928762e-05
3.2120129e-05
3.1506812e-05
3.2155072e-05
3.1503285e-05
3.1640802e-05
8.7237076e-05
0.00012302235
0.00010962576
4.6341268e-05
7.4157296e-05
4.3064554e-05
6.8865198e-05
4.1990794e-05
6.7176818e-05
4.5882941e-05
4.5243072e-05
4.4149092e-05
4.2635614e-05
4.0925783e-05
4.1570887e-05
4.4417813e-05
7.2355805e-05
4.1272364e-05
4.02405e-05
6.5440982e-05
4.4794593e-05
4.3710468e-05
4.0516077e-05
0.0001766811
0.00015562381
0.00016827064
7.0642485e-05
0.00014819759
0.00014091871
4.336275e-05
4.2314136e-05
3.92197e-05
0.0002353828
0.0001198567
0.00013029648
7.0534848e-05
0.00016159846
0.00011671691
4.5600163e-05
5.0704108e-05
9.7558988e-05
5.4298392e-05
0.00017947806
5.6580968e-05
0.00013794788
7.8063261e-05
0.00012776956
0.0001235905
0.001468903
0.0017302996
0.0005323916
5.0121685e-05
4.0346044e-05
0.00091316904
0.0026487472
0.00022877886
0.00017660743
4.8160367e-05
0.00017154383
0.00010008752
0.00014682686
0.00068274986
4.0325823e-05
0.00014317679
4.6774107e-05
5.1341327e-05
5.8257392e-05
0.00029482073
3.84445e-05
0.00020624517
9.6859392e-05
0.00018239888
0.00010046098
0.00072542578
3.6014686e-05
4.5097051e-05
6.8270023e-05
3.3764822e-05
0.00014915593
7.3634283e-05
0.0001137667
8.2800122e-05
0.00012486129
0.00089776051
3.1076333e-05
0.00010407534
0.00047811964
0.00027187676
9.9800296e-05
0.00010538491
0.00030084956
4.943474e-05
2.8276297e-05
4.5273444e-05
9.2025363e-05
0.00020004079
2.6955709e-05
9.1702097e-05
2.9307708e-05
9.4181846e-05
6.9527269e-05
4.0433776e-05
5.4201671e-05
0.00023059296
0.00013635854
9.9178428e-05
8.7170293e-05
4.5710179e-05
3.3078414e-05
3.7524366e-05
3.7823606e-05
4.3103627e-05
3.4307851e-05
4.9353443e-05
4.8131824e-05
1.6781987e-05
3.4343963e-05
0.0011626779
0.0003925726
8.0467548e-05
7.9419022e-05
7.4068264e-05
2.5115274e-05
2.7514882e-05
9.5794251e-05
2.8984918e-05
0.00036106389
4.9732143e-05
2.8870114e-05
8.0934399e-05
8.2889552e-05
5.7116586e-05
2.6222289e-05
5.6351332e-05
0.00010121244
2.8479462e-05
2.9413956e-05
8.7291691e-05
0.00014642089
0.00012481505
3.5276459e-05
2.6632811e-05
2.4652741e-05
2.2885609e-05
4.2723097e-05
8.3299712e-05
2.5543073e-05
2.4141247e-05
3.9519549e-05
5.3864461e-05
1.9331796e-05
2.3432548e-05
1.474274e-05
2.1622833e-05
0.00013847003
0.00014454674
0.00011112117
0.00011681342
0.00011471058
0.00011786394
0.00012091724
0.00012214917
0.00012670342
0.0001178138
0.0001419217
0.00013625872
0.00013374579
0.0001332075
0.00012402676
0.000130041
2.50587e-05
2.4168475e-05
2.9643161e-05
4.3168286e-05
4.0824485e-05
2.7495057e-05
2.7531736e-05
4.2213994e-05
2.7900487e-05
2.9803363e-05
2.6920387e-05
9.780561e-05
2.7972147e-05
2.7161622e-05
2.8183147e-05
2.7926045e-05
4.278235e-05
2.3869112e-05
2.620704e-05
2.816203e-05
2.7442597e-05
2.705347e-05
2.6964487e-05
2.6308993e-05
2.6836221e-05
2.7003779e-05
2.8149242e-05
2.665053e-05
2.7834332e-05
2.7359293e-05
2.8669336e-05
3.9478979e-05
2.5578997e-05
2.6188775e-05
4.4092034e-05
2.4307468e-05
2.4600066e-05
4.0178718e-05
8.0905764e-05
3.8179742e-05
8.7539644e-05
4.4909835e-05
0.00010454131
0.0001075698
2.7349496e-05
2.6850178e-05
2.7727274e-05
2.7447471e-05
2.8384807e-05
4.4741404e-05
4.0585288e-05
2.5412068e-05
2.7320658e-05
2.6622021e-05
0.00011197023
4.7082299e-05
2.5951124e-05
2.7804139e-05
2.6987879e-05
3.9104249e-05
4.8413974e-05
4.7255887e-05
4.6864878e-05
2.9832273e-05
2.9119086e-05
2.885825e-05
9.8895517e-05
4.9921997e-05
3.057634e-05
3.0722399e-05
4.8752455e-05
3.0041403e-05
2.7611941e-05
4.8051335e-05
4.7681456e-05
2.6952097e-05
2.6710867e-05
4.9672901e-05
2.8311041e-05
2.8449922e-05
2.7807925e-05
0.00012324607
2.9608119e-05
2.9369866e-05
2.8606588e-05
0.0001251229
4.937704e-05
0.00012815029
3.0413721e-05
3.0852513e-05
3.0235277e-05
2.7403653e-05
0.00010398063
0.00010216005
2.7183646e-05
4.5910071e-05
2.6490151e-05
4.9082909e-05
0.00010550559
0.000126775
0.0001068756
2.8157872e-05
0.00014684066
0.00014890257
0.00013836902
0.00014025638
5.0191556e-05
0.00010807084
2.857443e-05
2.7990272e-05
5.0704694e-05
5.054393e-05
3.1155488e-05
3.1066787e-05
2.8862523e-05
5.0409951e-05
2.8780176e-05
0.00010507146
4.9721865e-05
3.1256043e-05
3.1399847e-05
3.0966806e-05
2.8968151e-05
2.8683927e-05
4.9188377e-05
0.00010854006
0.00012830935
2.9476786e-05
9.1119128e-05
0.00010260923
0.00011754083
3.3391078e-05
5.561892e-05
9.7941791e-05
0.00017536891
9.9338656e-05
8.5940907e-05
5.7808937e-05