/*--------------------------------*- C++ -*----------------------------------*\
  =========                 |
  \\      /  F ield         | OpenFOAM: The Open Source CFD Toolbox
   \\    /   O peration     | Website:  https://openfoam.org
    \\  /    A nd           | Version:  8
     \\/     M anipulation  |
\*---------------------------------------------------------------------------*/
/*   Windows 32 and 64 bit porting by blueCAPE: http://www.bluecape.com.pt   *\
|  Based on Windows porting (2.0.x v4) by Symscape: http://www.symscape.com   |
\*---------------------------------------------------------------------------*/
FoamFile
{
    version     2.0;
    format      ascii;
    class       scalarListList;
    location    "constant/vegetation";
    object      solarLoadFineFaces;
}
// * * * * * * * * * * * * * * * * * * * * * * * * * * * * * * * * * * * * * //


5
(

1096
(
501.05251
501.05251
501.05251
501.05251
501.05251
501.05251
501.05251
501.05251
501.05251
501.05251
501.05251
501.05251
501.05251
501.05251
501.05251
501.05251
501.05251
501.05251
501.05251
501.05251
501.05251
501.05251
501.05251
501.05251
501.05251
501.05251
501.05251
501.05251
501.05251
501.05251
501.05251
501.05251
501.05251
501.05251
501.05251
501.05251
501.05251
501.05251
501.05251
501.05251
501.05251
501.05251
501.05251
501.05251
501.05251
501.05251
501.05251
501.05251
501.05251
501.05251
501.05251
501.05251
501.05251
501.05251
501.05251
501.05251
501.05251
501.05251
501.05251
501.05251
501.05251
501.05251
501.05251
501.05251
501.05251
501.05251
501.05251
501.05251
501.05251
501.05251
501.05251
501.05251
501.05251
501.05251
501.05251
501.05251
501.05251
501.05251
501.05251
501.05251
501.05251
501.05251
501.05251
501.05251
501.05251
501.05251
501.05251
501.05251
501.05251
501.05251
501.05251
501.05251
501.05251
501.05251
501.05251
501.05251
501.05251
501.05251
501.05251
501.05251
501.05251
501.05251
501.05251
501.05251
501.05251
501.05251
501.05251
501.05251
0
0
501.05251
501.05251
501.05251
501.05251
501.05251
501.05251
501.05251
0
0
501.05251
501.05251
501.05251
501.05251
501.05251
501.05251
501.05251
501.05251
0
0
501.05251
501.05251
501.05251
501.05251
501.05251
0
0
501.05251
501.05251
501.05251
501.05251
501.05251
0
0
0
501.05251
501.05251
501.05251
501.05251
501.05251
501.05251
501.05251
501.05251
501.05251
0
0
0
0
501.05251
501.05251
501.05251
0
0
501.05251
501.05251
0
0
0
0
501.05251
501.05251
0
0
0
0
0
0
0
0
0
0
0
0
0
0
0
0
0
0
0
0
0
0
0
0
0
0
0
0
0
0
0
0
0
0
0
0
0
0
501.05251
501.05251
501.05251
501.05251
501.05251
501.05251
501.05251
501.05251
0
501.05251
501.05251
0
0
0
0
0
0
501.05251
501.05251
501.05251
501.05251
501.05251
501.05251
501.05251
501.05251
501.05251
501.05251
501.05251
501.05251
501.05251
501.05251
501.05251
501.05251
501.05251
501.05251
0
0
0
0
0
501.05251
0
0
0
0
501.05251
0
0
0
501.05251
501.05251
0
0
0
0
0
0
0
0
0
501.05251
501.05251
501.05251
501.05251
501.05251
501.05251
0
0
0
0
0
0
0
0
0
0
0
0
0
0
0
0
0
0
0
0
0
501.05251
501.05251
501.05251
501.05251
81.062547
81.062547
81.062547
81.062547
81.062547
81.062547
81.062547
81.062547
81.062547
81.062547
81.062547
81.062547
81.062547
81.062547
81.062547
81.062547
81.062547
81.062547
81.062547
81.062547
81.062547
81.062547
81.062547
81.062547
81.062547
81.062547
81.062547
81.062547
81.062547
81.062547
81.062547
81.062547
81.062547
81.062547
81.062547
81.062547
81.062547
81.062547
81.062547
81.062547
81.062547
81.062547
81.062547
81.062547
81.062547
81.062547
81.062547
81.062547
81.062547
81.062547
81.062547
81.062547
81.062547
81.062547
81.062547
81.062547
81.062547
81.062547
81.062547
81.062547
81.062547
81.062547
81.062547
81.062547
81.062547
81.062547
81.062547
81.062547
81.062547
81.062547
81.062547
81.062547
81.062547
81.062547
81.062547
81.062547
81.062547
81.062547
81.062547
81.062547
81.062547
81.062547
81.062547
81.062547
81.062547
81.062547
81.062547
81.062547
81.062547
81.062547
81.062547
81.062547
81.062547
81.062547
81.062547
81.062547
81.062547
81.062547
81.062547
81.062547
81.062547
81.062547
81.062547
81.062547
81.062547
81.062547
81.062547
81.062547
81.062547
81.062547
81.062547
81.062547
81.062547
81.062547
81.062547
81.062547
81.062547
81.062547
81.062547
81.062547
81.062547
81.062547
81.062547
81.062547
81.062547
81.062547
81.062547
81.062547
81.062547
81.062547
81.062547
81.062547
81.062547
81.062547
81.062547
81.062547
81.062547
81.062547
81.062547
81.062547
81.062547
81.062547
81.062547
81.062547
81.062547
81.062547
81.062547
81.062547
81.062547
81.062547
81.062547
81.062547
81.062547
81.062547
81.062547
81.062547
81.062547
81.062547
81.062547
81.062547
81.062547
81.062547
81.062547
81.062547
81.062547
81.062547
81.062547
81.062547
81.062547
81.062547
81.062547
81.062547
81.062547
81.062547
81.062547
81.062547
81.062547
81.062547
81.062547
81.062547
81.062547
81.062547
81.062547
0
0
0
0
0
0
0
0
0
0
0
0
0
0
0
0
0
0
0
0
0
0
0
0
0
0
0
0
0
0
0
0
0
0
0
0
0
0
0
0
0
0
0
0
0
0
0
0
0
0
0
0
0
0
0
0
0
0
0
0
0
0
0
0
0
0
0
0
0
0
0
0
0
0
0
0
0
0
0
0
0
0
0
0
0
0
0
0
0
0
0
0
0
0
0
0
0
0
0
0
0
0
0
0
0
0
0
0
0
0
0
0
0
0
0
0
0
0
0
0
0
0
0
0
0
0
0
0
0
0
0
0
0
0
0
0
0
0
0
0
0
0
0
0
0
0
0
0
0
0
0
0
0
0
0
0
0
0
0
0
0
0
0
0
0
0
0
0
0
0
0
0
0
0
0
0
0
0
0
0
0
0
0
0
0
0
0
0
0
0
0
0
0
0
0
0
0
0
0
0
0
0
0
0
0
0
0
0
0
0
0
0
0
0
0
0
0
0
0
0
0
0
0
0
0
0
0
0
0
0
0
0
0
0
0
0
0
0
0
0
0
0
0
0
0
0
0
0
0
0
0
0
0
0
0
0
0
0
0
0
0
0
0
0
0
0
0
0
0
0
0
0
0
0
0
0
0
0
0
0
0
0
0
0
0
0
0
0
0
0
0
0
0
0
0
0
0
0
0
0
0
0
0
0
0
0
0
0
0
0
0
0
0
0
0
0
0
0
0
0
0
0
0
0
0
0
0
0
0
0
0
0
0
0
0
0
0
0
0
0
0
0
0
0
0
0
0
0
0
0
0
0
0
0
0
0
0
0
0
0
0
0
0
0
0
0
0
0
0
0
0
0
0
0
0
0
0
0
0
0
0
0
0
0
0
0
0
0
0
0
0
0
0
0
0
0
0
0
0
0
0
0
0
0
0
0
0
0
0
0
0
0
0
0
0
0
0
0
0
0
0
0
0
0
0
0
0
0
0
0
0
0
0
0
0
0
0
0
0
0
0
0
0
0
0
0
0
0
0
0
0
0
0
0
0
0
0
0
0
0
0
0
0
0
0
0
0
0
0
0
0
0
0
0
0
0
0
0
0
0
0
0
0
0
0
0
0
0
0
0
0
0
0
0
0
0
0
0
0
0
0
0
0
0
0
0
0
0
0
0
0
0
0
0
0
0
0
0
0
0
0
0
0
0
0
0
0
0
0
0
0
0
0
0
0
0
0
0
0
0
0
0
0
0
0
0
0
0
0
0
0
0
0
0
0
0
0
0
0
0
0
0
0
0
0
0
0
0
0
0
0
0
0
0
0
0
0
0
0
0
0
0
0
0
0
0
0
0
0
0
0
0
0
0
0
0
0
0
0
0
0
0
0
0
0
0
0
0
0
0
0
0
0
0
)


1096
(
284.54856
284.54856
284.54856
0
0
0
0
284.54856
284.54856
284.54856
0
284.54856
284.54856
284.54856
284.54856
0
0
284.54856
284.54856
0
0
284.54856
284.54856
284.54856
284.54856
284.54856
284.54856
0
0
284.54856
284.54856
284.54856
284.54856
0
284.54856
284.54856
284.54856
284.54856
284.54856
284.54856
284.54856
284.54856
284.54856
284.54856
284.54856
0
0
284.54856
284.54856
284.54856
284.54856
0
284.54856
284.54856
284.54856
284.54856
284.54856
284.54856
284.54856
284.54856
284.54856
284.54856
284.54856
0
0
0
0
0
0
0
0
0
0
0
0
0
0
0
0
0
0
0
0
0
284.54856
284.54856
284.54856
284.54856
0
284.54856
284.54856
284.54856
0
0
284.54856
284.54856
284.54856
0
0
0
0
0
0
0
0
0
0
0
0
0
284.54856
284.54856
0
0
0
0
0
0
0
0
284.54856
284.54856
284.54856
284.54856
284.54856
284.54856
284.54856
0
0
284.54856
284.54856
284.54856
284.54856
284.54856
0
0
284.54856
284.54856
284.54856
284.54856
284.54856
0
0
0
284.54856
284.54856
284.54856
284.54856
284.54856
284.54856
284.54856
284.54856
284.54856
0
0
0
0
284.54856
284.54856
284.54856
0
0
284.54856
284.54856
0
0
0
0
284.54856
284.54856
0
0
0
0
0
0
0
0
0
0
0
0
0
0
0
0
0
0
0
0
0
0
0
0
0
0
0
0
0
0
0
0
0
0
0
0
0
0
284.54856
284.54856
284.54856
284.54856
284.54856
284.54856
284.54856
284.54856
284.54856
284.54856
284.54856
0
284.54856
0
0
0
0
284.54856
284.54856
284.54856
284.54856
284.54856
284.54856
284.54856
284.54856
284.54856
284.54856
284.54856
284.54856
284.54856
284.54856
284.54856
284.54856
284.54856
284.54856
284.54856
284.54856
284.54856
284.54856
284.54856
284.54856
0
0
0
0
284.54856
0
0
0
284.54856
284.54856
284.54856
284.54856
284.54856
0
0
0
284.54856
284.54856
284.54856
284.54856
284.54856
284.54856
284.54856
284.54856
284.54856
0
0
0
0
0
0
0
0
0
0
0
0
0
0
0
0
0
0
0
0
0
284.54856
284.54856
284.54856
284.54856
0
0
0
0
0
0
0
0
0
0
0
0
0
0
0
0
0
0
0
0
0
0
0
0
0
0
0
0
0
0
0
0
0
0
0
0
0
0
0
0
0
0
0
0
0
0
0
0
0
0
0
0
0
0
0
0
0
0
0
0
0
0
0
0
0
0
0
0
0
0
0
0
0
0
0
0
0
0
0
0
0
0
0
0
0
0
0
0
0
0
0
0
0
0
0
0
0
0
0
0
0
0
0
0
0
0
0
0
0
0
0
0
0
0
0
0
0
0
0
0
0
0
0
0
0
0
0
0
0
0
0
0
0
0
0
0
0
0
0
0
0
0
0
0
0
0
0
0
0
0
0
0
0
0
0
0
0
0
0
0
0
0
0
0
0
0
0
0
0
0
0
0
0
0
0
0
0
0
0
0
0
0
0
0
0
0
0
0
0
0
0
0
0
0
0
0
0
0
0
0
0
0
0
0
0
0
0
0
0
0
0
0
0
0
0
0
0
0
0
0
0
0
0
0
0
0
0
0
0
0
0
0
0
0
0
0
0
0
0
0
0
0
0
0
0
0
0
0
0
0
0
0
0
0
0
0
0
0
0
0
0
0
0
0
0
0
0
0
0
0
0
0
0
0
0
0
0
0
0
0
0
0
0
0
0
0
0
0
0
0
0
0
0
0
0
0
0
0
0
0
0
0
0
0
0
0
0
0
0
0
0
0
0
0
0
0
0
0
0
0
0
0
0
0
0
0
0
0
0
0
0
0
0
0
0
0
0
0
0
0
0
0
0
0
0
0
0
0
0
0
0
0
0
0
0
0
0
0
0
0
0
0
0
0
0
0
0
0
0
0
0
0
0
0
0
0
0
0
0
0
0
0
0
0
0
0
0
0
0
0
0
0
0
0
0
0
0
0
0
0
0
0
0
0
0
0
0
0
0
0
0
0
0
0
0
0
0
0
0
0
0
0
0
0
0
0
0
0
0
0
0
0
0
0
0
0
0
0
0
0
0
0
0
0
0
0
0
0
0
0
0
0
0
0
0
0
0
0
0
0
0
0
0
0
0
0
0
0
0
0
0
0
0
0
0
0
0
0
0
0
0
0
0
0
0
0
0
0
0
0
0
0
0
0
0
0
0
0
0
0
0
0
0
0
0
0
0
0
0
0
0
0
0
0
0
0
0
0
0
0
0
0
0
0
0
0
0
0
0
0
0
0
0
0
0
0
0
0
0
0
0
0
0
0
0
0
0
0
0
0
0
0
0
0
0
0
0
0
0
0
0
0
0
0
0
0
0
0
0
0
0
0
0
0
0
0
0
0
0
0
0
0
0
0
0
0
0
0
0
0
0
0
0
0
0
0
0
0
0
0
0
0
0
0
0
0
0
0
0
0
0
0
0
0
0
0
0
0
0
0
0
0
0
0
0
0
0
0
0
0
0
0
0
0
0
0
0
0
0
0
0
0
0
0
0
0
0
0
0
0
0
0
0
0
0
0
0
0
0
0
0
0
0
0
0
0
0
0
0
0
0
0
0
0
0
0
0
0
0
0
0
0
0
0
0
0
0
0
0
0
0
0
0
0
0
0
0
0
0
0
0
0
0
0
0
0
0
0
0
0
0
0
0
0
0
0
0
0
0
0
0
0
0
0
0
0
0
0
0
0
0
0
0
0
0
0
0
0
0
0
0
0
0
0
0
0
0
0
0
0
0
0
0
0
0
0
0
0
0
0
0
0
0
0
0
0
0
0
0
0
0
0
0
0
0
0
0
0
0
0
0
0
0
0
0
0
0
0
0
0
0
0
0
0
0
0
0
)


1096
(
247.54772
247.54772
247.54772
0
0
0
0
247.54772
247.54772
247.54772
0
0
0
0
0
247.54772
0
0
0
0
0
247.54772
247.54772
247.54772
247.54772
247.54772
247.54772
0
0
0
0
0
0
0
247.54772
247.54772
247.54772
247.54772
247.54772
247.54772
247.54772
247.54772
247.54772
0
0
0
0
0
247.54772
0
247.54772
0
0
0
0
0
0
0
0
0
247.54772
247.54772
247.54772
0
0
0
0
0
0
0
0
0
0
0
0
0
0
0
0
0
0
0
0
0
247.54772
0
247.54772
247.54772
0
0
0
0
0
0
0
247.54772
247.54772
0
0
0
0
0
0
0
0
0
247.54772
0
0
0
247.54772
247.54772
0
0
0
0
0
0
0
0
247.54772
247.54772
247.54772
247.54772
247.54772
247.54772
247.54772
0
0
247.54772
247.54772
247.54772
247.54772
247.54772
0
0
247.54772
247.54772
247.54772
247.54772
247.54772
0
0
0
247.54772
247.54772
247.54772
247.54772
247.54772
247.54772
247.54772
247.54772
247.54772
0
0
0
0
247.54772
247.54772
247.54772
0
0
247.54772
247.54772
0
0
0
0
247.54772
247.54772
0
0
0
0
0
0
0
0
0
0
0
0
0
0
0
0
0
0
0
0
0
0
0
0
0
0
0
0
0
0
0
0
0
0
0
0
0
0
247.54772
247.54772
247.54772
247.54772
247.54772
247.54772
247.54772
247.54772
247.54772
247.54772
247.54772
247.54772
247.54772
0
247.54772
0
0
247.54772
247.54772
247.54772
247.54772
247.54772
247.54772
247.54772
247.54772
247.54772
247.54772
247.54772
247.54772
247.54772
247.54772
247.54772
247.54772
247.54772
247.54772
247.54772
247.54772
247.54772
247.54772
247.54772
247.54772
247.54772
0
247.54772
247.54772
247.54772
247.54772
247.54772
247.54772
247.54772
247.54772
247.54772
247.54772
247.54772
247.54772
0
247.54772
247.54772
247.54772
247.54772
247.54772
247.54772
247.54772
247.54772
247.54772
247.54772
0
0
0
0
0
0
0
0
0
0
0
0
0
0
0
0
0
0
0
0
0
247.54772
247.54772
247.54772
247.54772
0
0
0
0
0
0
0
0
0
0
0
0
0
0
0
0
0
0
0
0
0
0
0
0
0
0
0
0
0
0
0
0
0
0
0
0
0
0
0
0
0
0
0
0
0
0
0
0
0
0
0
0
0
0
0
0
0
0
0
0
0
0
0
0
0
0
0
0
0
0
0
0
0
0
0
0
0
0
0
0
0
0
0
0
0
0
0
0
0
0
0
0
0
0
0
0
0
0
0
0
0
0
0
0
0
0
0
0
0
0
0
0
0
0
0
0
0
0
0
0
0
0
0
0
0
0
0
0
0
0
0
0
0
0
0
0
0
0
0
0
0
0
0
0
0
0
0
0
0
0
0
0
0
0
0
0
0
0
0
0
0
0
0
0
0
0
0
0
0
0
0
0
0
0
0
0
0
0
0
0
0
0
0
0
0
0
0
0
0
0
0
0
0
0
0
0
0
0
0
0
0
0
0
0
0
0
0
0
0
0
0
0
0
0
0
0
0
0
0
0
0
0
0
0
0
0
0
0
0
0
0
0
0
0
0
0
0
0
0
0
0
0
0
0
0
0
0
0
0
0
0
0
0
0
0
0
0
0
0
0
0
0
0
0
0
0
0
0
0
0
0
0
0
0
0
0
0
0
0
0
0
0
0
0
0
0
0
0
0
0
0
0
0
0
0
0
0
0
0
0
0
0
0
0
0
0
0
0
0
0
0
0
0
0
0
0
0
0
0
0
0
0
0
0
0
0
0
0
0
0
0
0
0
0
0
0
0
0
0
0
0
0
0
0
0
0
0
0
0
0
0
0
0
0
0
0
0
0
0
0
0
0
0
0
0
0
0
0
0
0
0
0
0
0
0
0
0
0
0
0
0
0
0
0
0
0
0
0
0
0
0
0
0
0
0
0
0
0
0
0
0
0
0
0
0
0
0
0
0
0
0
0
0
0
0
0
0
0
0
0
0
0
0
0
0
0
0
0
0
0
0
0
0
0
0
0
0
0
0
0
0
0
0
0
0
0
0
0
0
0
0
0
0
0
0
0
0
0
0
0
0
0
0
0
0
0
0
0
0
0
0
0
0
0
0
0
0
0
0
0
0
0
0
0
0
0
0
0
0
0
0
0
0
0
0
0
0
0
0
0
0
0
0
0
0
0
0
0
0
0
0
0
0
0
0
0
0
0
0
0
0
0
0
0
0
0
0
0
0
0
0
0
0
0
0
0
0
0
0
0
0
0
0
0
0
0
0
0
0
0
0
0
0
0
0
0
0
0
0
0
0
0
0
0
0
0
0
0
0
0
0
0
0
0
0
0
0
0
0
0
0
0
0
0
0
0
0
0
0
0
0
0
0
0
0
0
0
0
0
0
0
0
0
0
0
0
0
0
0
0
0
0
0
0
0
0
0
0
0
0
0
0
0
0
0
0
0
0
0
0
0
0
0
0
0
0
0
0
0
0
0
0
0
0
0
0
0
0
0
0
0
0
0
0
0
0
0
0
0
0
0
0
0
0
0
0
0
0
0
0
0
0
0
0
0
0
0
0
0
0
0
0
0
0
0
0
0
0
0
0
0
0
0
0
0
0
0
0
0
0
0
0
0
0
0
0
0
0
0
0
0
0
0
0
0
0
0
0
0
0
0
0
0
0
0
0
0
0
0
0
0
0
0
0
0
0
0
0
0
0
0
0
0
0
0
0
0
0
0
0
0
0
0
0
0
0
0
0
0
0
0
0
0
0
0
0
0
0
0
0
0
0
0
0
0
0
0
0
0
0
0
0
0
0
0
0
0
0
0
0
0
0
0
0
0
0
0
)


1096
(
218.93877
218.93877
218.93877
0
0
0
0
0
0
218.93877
0
0
0
0
218.93877
218.93877
0
0
0
0
0
218.93877
218.93877
218.93877
218.93877
218.93877
218.93877
0
0
0
0
0
0
0
0
0
0
218.93877
218.93877
0
218.93877
218.93877
218.93877
0
0
0
0
0
218.93877
0
218.93877
0
0
0
0
0
0
0
0
0
218.93877
218.93877
218.93877
0
0
0
0
0
0
0
0
0
0
0
0
0
0
0
0
0
0
0
0
0
0
0
0
0
0
0
0
0
0
0
0
218.93877
218.93877
0
0
0
0
0
0
0
0
0
218.93877
0
0
0
218.93877
218.93877
218.93877
218.93877
0
0
0
0
0
0
218.93877
218.93877
218.93877
218.93877
218.93877
218.93877
218.93877
218.93877
218.93877
218.93877
218.93877
218.93877
218.93877
218.93877
218.93877
218.93877
218.93877
218.93877
218.93877
218.93877
218.93877
0
0
0
218.93877
218.93877
218.93877
218.93877
218.93877
218.93877
218.93877
218.93877
218.93877
0
0
0
0
218.93877
218.93877
218.93877
218.93877
218.93877
218.93877
218.93877
218.93877
218.93877
218.93877
218.93877
218.93877
218.93877
218.93877
218.93877
0
0
0
0
0
0
0
0
0
0
0
0
0
0
0
0
0
0
0
0
0
0
0
0
0
0
0
0
0
0
0
0
0
0
0
0
218.93877
218.93877
218.93877
218.93877
218.93877
218.93877
218.93877
218.93877
218.93877
218.93877
218.93877
218.93877
218.93877
218.93877
218.93877
218.93877
218.93877
218.93877
218.93877
218.93877
218.93877
218.93877
218.93877
218.93877
218.93877
218.93877
218.93877
218.93877
218.93877
218.93877
218.93877
218.93877
218.93877
218.93877
218.93877
218.93877
218.93877
218.93877
218.93877
218.93877
218.93877
218.93877
218.93877
218.93877
218.93877
218.93877
218.93877
218.93877
218.93877
218.93877
218.93877
218.93877
218.93877
218.93877
218.93877
218.93877
218.93877
218.93877
218.93877
218.93877
218.93877
218.93877
218.93877
218.93877
218.93877
218.93877
0
0
0
218.93877
0
0
0
0
0
218.93877
218.93877
0
218.93877
0
218.93877
218.93877
0
218.93877
0
0
218.93877
218.93877
218.93877
218.93877
218.93877
0
0
0
0
0
0
0
0
0
0
0
0
0
0
0
0
0
0
0
0
0
0
0
0
0
0
0
0
0
0
0
0
0
0
0
0
0
0
0
0
0
0
0
0
0
0
0
0
0
0
0
0
0
0
0
0
0
0
0
0
0
0
0
0
0
0
0
0
0
0
0
0
0
0
0
0
0
0
0
0
0
0
0
0
0
0
0
0
0
0
0
0
0
0
0
0
0
0
0
0
0
0
0
0
0
0
0
0
0
0
0
0
0
0
0
0
0
0
0
0
0
0
0
0
0
0
0
0
0
0
0
0
0
0
0
0
0
0
0
0
0
0
0
0
0
0
0
0
0
0
0
0
0
0
0
0
0
0
0
0
0
0
0
0
0
0
0
0
0
0
0
0
0
0
0
0
0
0
0
0
0
0
0
0
0
0
0
0
0
0
0
0
0
0
0
0
0
0
0
0
0
0
0
0
0
0
0
0
0
0
0
0
0
0
0
0
0
0
0
0
0
0
0
0
0
0
0
0
0
0
0
0
0
0
0
0
0
0
0
0
0
0
0
0
0
0
0
0
0
0
0
0
0
0
0
0
0
0
0
0
0
0
0
0
0
0
0
0
0
0
0
0
0
0
0
0
0
0
0
0
0
0
0
0
0
0
0
0
0
0
0
0
0
0
0
0
0
0
0
0
0
0
0
0
0
0
0
0
0
0
0
0
0
0
0
0
0
0
0
0
0
0
0
0
0
0
0
0
0
0
0
0
0
0
0
0
0
0
0
0
0
0
0
0
0
0
0
0
0
0
0
0
0
0
0
0
0
0
0
0
0
0
0
0
0
0
0
0
0
0
0
0
0
0
0
0
0
0
0
0
0
0
0
0
0
0
0
0
0
0
0
0
0
0
0
0
0
0
0
0
0
0
0
0
0
0
0
0
0
0
0
0
0
0
0
0
0
0
0
0
0
0
0
0
0
0
0
0
0
0
0
0
0
0
0
0
0
0
0
0
0
0
0
0
0
0
0
0
0
0
0
0
0
0
0
0
0
0
0
0
0
0
0
0
0
0
0
0
0
0
0
0
0
0
0
0
0
0
0
0
0
0
0
0
0
0
0
0
0
0
0
0
0
0
0
0
0
0
0
0
0
0
0
0
0
0
0
0
0
0
0
0
0
0
0
0
0
0
0
0
0
0
0
0
0
0
0
0
0
0
0
0
0
0
0
0
0
0
0
0
0
0
0
0
0
0
0
0
0
0
0
0
0
0
0
0
0
0
0
0
0
0
0
0
0
0
0
0
0
0
0
0
0
0
0
0
0
0
0
0
0
0
0
0
0
0
0
0
0
0
0
0
0
0
0
0
0
0
0
0
0
0
0
0
0
0
0
0
0
0
0
0
0
0
0
0
0
0
0
0
0
0
0
0
0
0
0
0
0
0
0
0
0
0
0
0
0
0
0
0
0
0
0
0
0
0
0
0
0
0
0
0
0
0
0
0
0
0
0
0
0
0
0
0
0
0
0
0
0
0
0
0
0
0
0
0
0
0
0
0
0
0
0
0
0
0
0
0
0
0
0
0
0
0
0
0
0
0
0
0
0
0
0
0
0
0
0
0
0
0
0
0
0
0
0
0
0
0
0
0
0
0
0
0
0
0
0
0
0
0
0
0
0
0
0
0
0
0
0
0
0
0
0
0
0
0
0
0
0
0
0
0
0
0
0
0
0
0
0
0
0
0
0
0
0
0
0
0
0
0
0
0
0
0
0
0
0
0
0
0
0
0
0
0
0
0
0
0
0
0
0
0
0
0
0
0
0
)


1096
(
180.4505
180.4505
180.4505
0
0
0
0
0
180.4505
180.4505
0
0
0
0
180.4505
180.4505
0
0
180.4505
180.4505
0
0
180.4505
180.4505
180.4505
180.4505
180.4505
0
0
0
0
0
0
0
0
0
0
180.4505
180.4505
180.4505
180.4505
180.4505
180.4505
0
0
0
180.4505
180.4505
180.4505
0
0
0
0
0
180.4505
180.4505
0
0
0
0
180.4505
180.4505
180.4505
0
0
0
0
0
0
0
0
0
0
0
0
0
0
0
0
0
0
0
0
0
0
0
0
0
0
0
0
0
0
0
0
0
0
0
0
0
0
0
0
0
0
0
180.4505
180.4505
180.4505
180.4505
180.4505
180.4505
180.4505
180.4505
180.4505
180.4505
180.4505
180.4505
180.4505
180.4505
180.4505
180.4505
180.4505
180.4505
180.4505
180.4505
180.4505
180.4505
180.4505
180.4505
180.4505
180.4505
180.4505
180.4505
180.4505
180.4505
180.4505
180.4505
180.4505
180.4505
180.4505
180.4505
180.4505
180.4505
180.4505
180.4505
180.4505
180.4505
180.4505
180.4505
180.4505
180.4505
180.4505
180.4505
180.4505
180.4505
180.4505
180.4505
180.4505
180.4505
180.4505
180.4505
180.4505
180.4505
180.4505
180.4505
180.4505
180.4505
180.4505
180.4505
180.4505
180.4505
180.4505
180.4505
180.4505
180.4505
180.4505
180.4505
180.4505
180.4505
180.4505
180.4505
180.4505
180.4505
180.4505
180.4505
180.4505
180.4505
180.4505
180.4505
180.4505
180.4505
180.4505
180.4505
180.4505
180.4505
180.4505
180.4505
180.4505
180.4505
180.4505
180.4505
180.4505
180.4505
180.4505
180.4505
180.4505
180.4505
180.4505
180.4505
180.4505
180.4505
180.4505
180.4505
180.4505
180.4505
180.4505
180.4505
180.4505
180.4505
180.4505
180.4505
180.4505
180.4505
180.4505
180.4505
180.4505
180.4505
180.4505
180.4505
180.4505
180.4505
180.4505
180.4505
180.4505
180.4505
180.4505
180.4505
180.4505
180.4505
180.4505
180.4505
180.4505
180.4505
180.4505
180.4505
180.4505
180.4505
180.4505
180.4505
180.4505
180.4505
180.4505
180.4505
180.4505
180.4505
180.4505
180.4505
180.4505
180.4505
180.4505
180.4505
180.4505
180.4505
180.4505
180.4505
180.4505
180.4505
180.4505
180.4505
180.4505
180.4505
180.4505
180.4505
180.4505
180.4505
180.4505
180.4505
180.4505
180.4505
180.4505
180.4505
180.4505
180.4505
180.4505
180.4505
180.4505
180.4505
180.4505
180.4505
180.4505
180.4505
180.4505
180.4505
180.4505
180.4505
180.4505
180.4505
180.4505
0
0
0
0
0
0
0
0
0
0
0
0
0
0
0
0
0
0
0
0
0
0
0
0
0
0
0
0
0
0
0
0
0
0
0
0
0
0
0
0
0
0
0
0
0
0
0
0
0
0
0
0
0
0
0
0
0
0
0
0
0
0
0
0
0
0
0
0
0
0
0
0
0
0
0
0
0
0
0
0
0
0
0
0
0
0
0
0
0
0
0
0
0
0
0
0
0
0
0
0
0
0
0
0
0
0
0
0
0
0
0
0
0
0
0
0
0
0
0
0
0
0
0
0
0
0
0
0
0
0
0
0
0
0
0
0
0
0
0
0
0
0
0
0
0
0
0
0
0
0
0
0
0
0
0
0
0
0
0
0
0
0
0
0
0
0
0
0
0
0
0
0
0
0
0
0
0
0
0
0
0
0
0
1.3650296
1.3650296
1.3650296
1.3650296
1.3650296
1.3650296
1.3650296
1.3650296
1.3650296
1.3650296
1.3650296
1.3650296
1.3650296
1.3650296
1.3650296
1.3650296
1.3650296
1.3650296
1.3650296
1.3650296
1.3650296
1.3650296
1.3650296
1.3650296
1.3650296
1.3650296
1.3650296
1.3650296
1.3650296
1.3650296
1.3650296
1.3650296
1.3650296
1.3650296
1.3650296
1.3650296
1.3650296
1.3650296
1.3650296
1.3650296
1.3650296
1.3650296
1.3650296
1.3650296
1.3650296
1.3650296
1.3650296
1.3650296
1.3650296
1.3650296
1.3650296
1.3650296
1.3650296
1.3650296
1.3650296
1.3650296
1.3650296
1.3650296
1.3650296
1.3650296
1.3650296
1.3650296
1.3650296
1.3650296
1.3650296
1.3650296
1.3650296
1.3650296
1.3650296
1.3650296
1.3650296
1.3650296
1.3650296
1.3650296
1.3650296
1.3650296
1.3650296
1.3650296
1.3650296
1.3650296
1.3650296
1.3650296
1.3650296
1.3650296
1.3650296
1.3650296
1.3650296
1.3650296
1.3650296
1.3650296
1.3650296
1.3650296
1.3650296
1.3650296
1.3650296
1.3650296
1.3650296
1.3650296
1.3650296
1.3650296
1.3650296
1.3650296
1.3650296
1.3650296
1.3650296
1.3650296
1.3650296
1.3650296
1.3650296
1.3650296
1.3650296
1.3650296
1.3650296
1.3650296
1.3650296
1.3650296
1.3650296
1.3650296
1.3650296
1.3650296
1.3650296
1.3650296
1.3650296
1.3650296
1.3650296
1.3650296
1.3650296
1.3650296
1.3650296
1.3650296
1.3650296
1.3650296
1.3650296
1.3650296
1.3650296
1.3650296
1.3650296
1.3650296
1.3650296
1.3650296
1.3650296
1.3650296
1.3650296
1.3650296
1.3650296
1.3650296
1.3650296
1.3650296
1.3650296
1.3650296
1.3650296
1.3650296
1.3650296
1.3650296
1.3650296
1.3650296
1.3650296
1.3650296
1.3650296
1.3650296
1.3650296
1.3650296
1.3650296
1.3650296
1.3650296
1.3650296
1.3650296
1.3650296
1.3650296
1.3650296
1.3650296
1.3650296
1.3650296
1.3650296
1.3650296
1.3650296
1.3650296
1.3650296
1.3650296
1.3650296
1.3650296
1.3650296
1.3650296
1.3650296
1.3650296
1.3650296
1.3650296
1.3650296
1.3650296
1.3650296
1.3650296
1.3650296
1.3650296
1.3650296
1.3650296
1.3650296
1.3650296
1.3650296
1.3650296
1.3650296
1.3650296
1.3650296
1.3650296
1.3650296
1.3650296
1.3650296
1.3650296
1.3650296
1.3650296
1.3650296
1.3650296
1.3650296
1.3650296
1.3650296
1.3650296
1.3650296
1.3650296
1.3650296
1.3650296
1.3650296
1.3650296
1.3650296
1.3650296
1.3650296
1.3650296
1.3650296
1.3650296
1.3650296
1.3650296
1.3650296
1.3650296
1.3650296
1.3650296
1.3650296
1.3650296
1.3650296
1.3650296
1.3650296
1.3650296
1.3650296
1.3650296
1.3650296
1.3650296
1.3650296
1.3650296
1.3650296
1.3650296
1.3650296
1.3650296
1.3650296
1.3650296
1.3650296
1.3650296
1.3650296
1.3650296
1.3650296
1.3650296
1.3650296
1.3650296
1.3650296
1.3650296
1.3650296
1.3650296
1.3650296
1.3650296
1.3650296
1.3650296
1.3650296
1.3650296
1.3650296
1.3650296
1.3650296
1.3650296
1.3650296
1.3650296
1.3650296
1.3650296
1.3650296
1.3650296
1.3650296
1.3650296
1.3650296
1.3650296
1.3650296
1.3650296
1.3650296
1.3650296
1.3650296
1.3650296
1.3650296
1.3650296
1.3650296
1.3650296
1.3650296
1.3650296
1.3650296
1.3650296
1.3650296
1.3650296
1.3650296
1.3650296
1.3650296
1.3650296
1.3650296
1.3650296
1.3650296
1.3650296
1.3650296
1.3650296
1.3650296
1.3650296
1.3650296
1.3650296
1.3650296
1.3650296
1.3650296
1.3650296
1.3650296
1.3650296
1.3650296
1.3650296
1.3650296
1.3650296
1.3650296
1.3650296
1.3650296
1.3650296
1.3650296
1.3650296
1.3650296
1.3650296
1.3650296
1.3650296
1.3650296
1.3650296
1.3650296
1.3650296
1.3650296
1.3650296
1.3650296
1.3650296
1.3650296
1.3650296
1.3650296
1.3650296
1.3650296
1.3650296
1.3650296
1.3650296
1.3650296
1.3650296
1.3650296
1.3650296
1.3650296
1.3650296
1.3650296
1.3650296
1.3650296
1.3650296
1.3650296
1.3650296
1.3650296
1.3650296
1.3650296
1.3650296
1.3650296
1.3650296
1.3650296
1.3650296
1.3650296
1.3650296
1.3650296
1.3650296
1.3650296
1.3650296
1.3650296
1.3650296
1.3650296
1.3650296
1.3650296
1.3650296
1.3650296
1.3650296
1.3650296
1.3650296
1.3650296
1.3650296
1.3650296
1.3650296
1.3650296
1.3650296
1.3650296
1.3650296
1.3650296
1.3650296
1.3650296
1.3650296
1.3650296
1.3650296
1.3650296
1.3650296
1.3650296
1.3650296
1.3650296
1.3650296
1.3650296
1.3650296
1.3650296
1.3650296
1.3650296
1.3650296
1.3650296
1.3650296
1.3650296
1.3650296
1.3650296
1.3650296
1.3650296
1.3650296
1.3650296
1.3650296
1.3650296
1.3650296
1.3650296
1.3650296
1.3650296
1.3650296
1.3650296
1.3650296
1.3650296
1.3650296
1.3650296
1.3650296
1.3650296
1.3650296
1.3650296
1.3650296
1.3650296
1.3650296
1.3650296
1.3650296
1.3650296
1.3650296
1.3650296
1.3650296
1.3650296
1.3650296
1.3650296
1.3650296
1.3650296
1.3650296
1.3650296
1.3650296
1.3650296
1.3650296
1.3650296
1.3650296
1.3650296
1.3650296
1.3650296
1.3650296
1.3650296
1.3650296
1.3650296
1.3650296
1.3650296
1.3650296
1.3650296
1.3650296
1.3650296
1.3650296
1.3650296
1.3650296
1.3650296
1.3650296
1.3650296
1.3650296
1.3650296
1.3650296
1.3650296
1.3650296
1.3650296
1.3650296
1.3650296
1.3650296
1.3650296
1.3650296
1.3650296
1.3650296
1.3650296
1.3650296
1.3650296
1.3650296
1.3650296
1.3650296
1.3650296
1.3650296
1.3650296
1.3650296
1.3650296
1.3650296
1.3650296
1.3650296
1.3650296
1.3650296
1.3650296
1.3650296
1.3650296
1.3650296
1.3650296
1.3650296
1.3650296
1.3650296
1.3650296
1.3650296
1.3650296
1.3650296
1.3650296
1.3650296
1.3650296
1.3650296
1.3650296
1.3650296
1.3650296
1.3650296
1.3650296
1.3650296
1.3650296
1.3650296
1.3650296
1.3650296
1.3650296
1.3650296
1.3650296
1.3650296
1.3650296
1.3650296
1.3650296
1.3650296
1.3650296
1.3650296
1.3650296
1.3650296
1.3650296
1.3650296
1.3650296
1.3650296
1.3650296
1.3650296
1.3650296
1.3650296
1.3650296
1.3650296
1.3650296
1.3650296
1.3650296
1.3650296
1.3650296
1.3650296
1.3650296
1.3650296
1.3650296
1.3650296
1.3650296
1.3650296
1.3650296
1.3650296
1.3650296
1.3650296
1.3650296
1.3650296
1.3650296
1.3650296
1.3650296
1.3650296
1.3650296
1.3650296
1.3650296
1.3650296
1.3650296
1.3650296
1.3650296
1.3650296
1.3650296
1.3650296
1.3650296
1.3650296
1.3650296
1.3650296
1.3650296
1.3650296
1.3650296
1.3650296
1.3650296
1.3650296
1.3650296
1.3650296
1.3650296
1.3650296
1.3650296
1.3650296
1.3650296
1.3650296
1.3650296
1.3650296
1.3650296
1.3650296
1.3650296
1.3650296
1.3650296
1.3650296
1.3650296
1.3650296
1.3650296
)

)


// ************************************************************************* //
