/*--------------------------------*- C++ -*----------------------------------*\
  =========                 |
  \\      /  F ield         | OpenFOAM: The Open Source CFD Toolbox
   \\    /   O peration     | Website:  https://openfoam.org
    \\  /    A nd           | Version:  8
     \\/     M anipulation  |
\*---------------------------------------------------------------------------*/
/*   Windows 32 and 64 bit porting by blueCAPE: http://www.bluecape.com.pt   *\
|  Based on Windows porting (2.0.x v4) by Symscape: http://www.symscape.com   |
\*---------------------------------------------------------------------------*/
FoamFile
{
    version     2.0;
    format      ascii;
    class       scalarListList;
    location    "constant/vegetation";
    object      sunViewCoeff;
}
// * * * * * * * * * * * * * * * * * * * * * * * * * * * * * * * * * * * * * //


5
(

866
(
501.05251
501.05251
501.05251
501.05251
501.05251
501.05251
501.05251
501.05251
501.05251
501.05251
501.05251
501.05251
446.06526
501.05251
501.05251
501.05251
501.05251
501.05251
501.05251
501.05251
501.05251
501.05251
501.05251
501.05251
501.05251
501.05251
164.99228
501.05251
0
182.99948
501.05251
501.05251
501.05251
501.05251
501.05251
0
0
501.05251
501.05251
376.34816
0
0
501.05251
157.43631
0
0
0
0
0
0
0
501.05251
501.05251
501.05251
501.05251
501.05251
358.59109
429.98299
123.04559
0
0
0
257.69589
501.05251
0
0
0
0
0
81.062547
81.062547
81.062547
81.062547
81.062547
81.062547
81.062547
81.062547
81.062547
81.062547
81.062547
81.062547
81.062547
81.062547
81.062547
81.062547
81.062547
81.062547
81.062547
81.062547
81.062547
81.062547
81.062547
81.062547
81.062547
81.062547
81.062547
81.062547
81.062547
81.062547
81.062547
81.062547
81.062547
81.062547
81.062547
81.062547
81.062547
81.062547
81.062547
81.062547
81.062547
81.062547
81.062547
81.062547
81.062547
81.062547
81.062547
81.062547
81.062547
81.062547
81.062547
81.062547
81.062547
81.062547
81.062547
81.062547
81.062547
81.062547
81.062547
81.062547
81.062547
81.062547
81.062547
81.062547
81.062547
81.062547
81.062547
81.062547
81.062547
81.062547
81.062547
81.062547
81.062547
81.062547
81.062547
81.062547
81.062547
81.062547
81.062547
81.062547
81.062547
81.062547
81.062547
81.062547
81.062547
81.062547
81.062547
81.062547
81.062547
81.062547
81.062547
81.062547
81.062547
81.062547
81.062547
81.062547
81.062547
81.062547
81.062547
81.062547
81.062547
81.062547
81.062547
81.062547
81.062547
81.062547
81.062547
81.062547
81.062547
81.062547
81.062547
81.062547
81.062547
81.062547
81.062547
81.062547
81.062547
81.062547
81.062547
81.062547
81.062547
81.062547
81.062547
81.062547
81.062547
81.062547
81.062547
81.062547
81.062547
81.062547
81.062547
81.062547
81.062547
81.062547
81.062547
81.062547
81.062547
81.062547
81.062547
81.062547
81.062547
81.062547
81.062547
81.062547
81.062547
81.062547
81.062547
81.062547
81.062547
81.062547
81.062547
81.062547
81.062547
81.062547
81.062547
81.062547
81.062547
81.062547
81.062547
81.062547
81.062547
81.062547
81.062547
81.062547
81.062547
81.062547
81.062547
81.062547
81.062547
81.062547
81.062547
81.062547
81.062547
81.062547
81.062547
81.062547
81.062547
81.062547
81.062547
81.062547
81.062547
81.062547
81.062547
0
0
0
0
0
0
0
0
0
0
0
0
0
0
0
0
0
0
0
0
0
0
0
0
0
0
0
0
0
0
0
0
0
0
0
0
0
0
0
0
0
0
0
0
0
0
0
0
0
0
0
0
0
0
0
0
0
0
0
0
0
0
0
0
0
0
0
0
0
0
0
0
0
0
0
0
0
0
0
0
0
0
0
0
0
0
0
0
0
0
0
0
0
0
0
0
0
0
0
0
0
0
0
0
0
0
0
0
0
0
0
0
0
0
0
0
0
0
0
0
0
0
0
0
0
0
0
0
0
0
0
0
0
0
0
0
0
0
0
0
0
0
0
0
0
0
0
0
0
0
0
0
0
0
0
0
0
0
0
0
0
0
0
0
0
0
0
0
0
0
0
0
0
0
0
0
0
0
0
0
0
0
0
0
0
0
0
0
0
0
0
0
0
0
0
0
0
0
0
0
0
0
0
0
0
0
0
0
0
0
0
0
0
0
0
0
0
0
0
0
0
0
0
0
0
0
0
0
0
0
0
0
0
0
0
0
0
0
0
0
0
0
0
0
0
0
0
0
0
0
0
0
0
0
0
0
0
0
0
0
0
0
0
0
0
0
0
0
0
0
0
0
0
0
0
0
0
0
0
0
0
0
0
0
0
0
0
0
0
0
0
0
0
0
0
0
0
0
0
0
0
0
0
0
0
0
0
0
0
0
0
0
0
0
0
0
0
0
0
0
0
0
0
0
0
0
0
0
0
0
0
0
0
0
0
0
0
0
0
0
0
0
0
0
0
0
0
0
0
0
0
0
0
0
0
0
0
0
0
0
0
0
0
0
0
0
0
0
0
0
0
0
0
0
0
0
0
0
0
0
0
0
0
0
0
0
0
0
0
0
0
0
0
0
0
0
0
0
0
0
0
0
0
0
0
0
0
0
0
0
0
0
0
0
0
0
0
0
0
0
0
0
0
0
0
0
0
0
0
0
0
0
0
0
0
0
0
0
0
0
0
0
0
0
0
0
0
0
0
0
0
0
0
0
0
0
0
0
0
0
0
0
0
0
0
0
0
0
0
0
0
0
0
0
0
0
0
0
0
0
0
0
0
0
0
0
0
0
0
0
0
0
0
0
0
0
0
0
0
0
0
0
0
0
0
0
0
0
0
0
0
0
0
0
0
0
0
0
0
0
0
0
0
0
0
0
0
0
0
0
0
0
0
0
0
0
0
0
0
0
0
0
0
0
0
0
0
0
0
0
0
0
0
0
0
0
0
0
0
0
0
0
0
0
0
0
0
0
0
0
0
0
0
0
0
0
0
0
0
0
0
0
0
0
0
0
0
0
0
0
0
0
0
0
0
0
0
0
0
0
0
0
0
0
0
0
0
0
0
0
0
0
0
0
)


866
(
284.54856
284.54856
284.54856
112.66376
212.94272
284.54856
284.54856
150.50674
284.54856
284.54856
284.54856
262.42985
0
141.05229
151.8978
0
138.85122
284.54856
0
0
0
0
250.17452
0
0
0
0
284.54856
0
0
284.54856
284.54856
284.54856
284.54856
284.54856
0
0
284.54856
284.54856
213.72875
0
0
284.54856
89.408347
0
0
0
0
0
0
0
284.54856
284.54856
284.54856
284.54856
284.54856
284.54856
284.54856
69.877798
0
275.67183
0
146.34593
284.54856
284.54856
0
0
0
0
0
0
0
0
0
0
0
0
0
0
0
0
0
0
0
0
0
0
0
0
0
0
0
0
0
0
0
0
0
0
0
0
0
0
0
0
0
0
0
0
0
0
0
0
0
0
0
0
0
0
0
0
0
0
0
0
0
0
0
0
0
0
0
0
0
0
0
0
0
0
0
0
0
0
0
0
0
0
0
0
0
0
0
0
0
0
0
0
0
0
0
0
0
0
0
0
0
0
0
0
0
0
0
0
0
0
0
0
0
0
0
0
0
0
0
0
0
0
0
0
0
0
0
0
0
0
0
0
0
0
0
0
0
0
0
0
0
0
0
0
0
0
0
0
0
0
0
0
0
0
0
0
0
0
0
0
0
0
0
0
0
0
0
0
0
0
0
0
0
0
0
0
0
0
0
0
0
0
0
0
0
0
0
0
0
0
0
0
0
0
0
0
0
0
0
0
0
0
0
0
0
0
0
0
0
0
0
0
0
0
0
0
0
0
0
0
0
0
0
0
0
0
0
0
0
0
0
0
0
0
0
0
0
0
0
0
0
0
0
0
0
0
0
0
0
0
0
0
0
0
0
0
0
0
0
0
0
0
0
0
0
0
0
0
0
0
0
0
0
0
0
0
0
0
0
0
0
0
0
0
0
0
0
0
0
0
0
0
0
0
0
0
0
0
0
0
0
0
0
0
0
0
0
0
0
0
0
0
0
0
0
0
0
0
0
0
0
0
0
0
0
0
0
0
0
0
0
0
0
0
0
0
0
0
0
0
0
0
0
0
0
0
0
0
0
0
0
0
0
0
0
0
0
0
0
0
0
0
0
0
0
0
0
0
0
0
0
0
0
0
0
0
0
0
0
0
0
0
0
0
0
0
0
0
0
0
0
0
0
0
0
0
0
0
0
0
0
0
0
0
0
0
0
0
0
0
0
0
0
0
0
0
0
0
0
0
0
0
0
0
0
0
0
0
0
0
0
0
0
0
0
0
0
0
0
0
0
0
0
0
0
0
0
0
0
0
0
0
0
0
0
0
0
0
0
0
0
0
0
0
0
0
0
0
0
0
0
0
0
0
0
0
0
0
0
0
0
0
0
0
0
0
0
0
0
0
0
0
0
0
0
0
0
0
0
0
0
0
0
0
0
0
0
0
0
0
0
0
0
0
0
0
0
0
0
0
0
0
0
0
0
0
0
0
0
0
0
0
0
0
0
0
0
0
0
0
0
0
0
0
0
0
0
0
0
0
0
0
0
0
0
0
0
0
0
0
0
0
0
0
0
0
0
0
0
0
0
0
0
0
0
0
0
0
0
0
0
0
0
0
0
0
0
0
0
0
0
0
0
0
0
0
0
0
0
0
0
0
0
0
0
0
0
0
0
0
0
0
0
0
0
0
0
0
0
0
0
0
0
0
0
0
0
0
0
0
0
0
0
0
0
0
0
0
0
0
0
0
0
0
0
0
0
0
0
0
0
0
0
0
0
0
0
0
0
0
0
0
0
0
0
0
0
0
0
0
0
0
0
0
0
0
0
0
0
0
0
0
0
0
0
0
0
0
0
0
0
0
0
0
0
0
0
0
0
0
0
0
0
0
0
0
0
0
0
0
0
0
0
0
0
0
0
0
0
0
0
0
0
0
0
0
0
0
0
0
0
0
0
0
0
0
0
0
0
0
0
0
0
0
0
0
0
0
0
0
0
0
0
0
0
0
0
0
0
0
0
0
0
0
0
0
0
0
0
0
0
0
0
0
0
0
0
0
0
0
0
0
0
0
0
0
0
0
0
0
0
0
0
0
0
0
0
0
0
0
0
)


866
(
247.54772
247.54772
247.54772
0
0
247.54772
179.9153
0
123.79221
0
127.69206
247.54772
0
0
0
0
0
247.54772
0
0
0
0
0
0
0
94.906652
0
247.54772
0
0
247.54772
247.54772
247.54772
247.54772
247.54772
0
0
247.54772
247.54772
185.93686
0
0
247.54772
77.782268
0
0
0
0
0
0
0
247.54772
247.54772
247.54772
247.54772
247.54772
247.54772
247.54772
194.47437
207.24093
239.82526
160.35768
190.65784
247.54772
247.54772
0
0
0
0
0
0
0
0
0
0
0
0
0
0
0
0
0
0
0
0
0
0
0
0
0
0
0
0
0
0
0
0
0
0
0
0
0
0
0
0
0
0
0
0
0
0
0
0
0
0
0
0
0
0
0
0
0
0
0
0
0
0
0
0
0
0
0
0
0
0
0
0
0
0
0
0
0
0
0
0
0
0
0
0
0
0
0
0
0
0
0
0
0
0
0
0
0
0
0
0
0
0
0
0
0
0
0
0
0
0
0
0
0
0
0
0
0
0
0
0
0
0
0
0
0
0
0
0
0
0
0
0
0
0
0
0
0
0
0
0
0
0
0
0
0
0
0
0
0
0
0
0
0
0
0
0
0
0
0
0
0
0
0
0
0
0
0
0
0
0
0
0
0
0
0
0
0
0
0
0
0
0
0
0
0
0
0
0
0
0
0
0
0
0
0
0
0
0
0
0
0
0
0
0
0
0
0
0
0
0
0
0
0
0
0
0
0
0
0
0
0
0
0
0
0
0
0
0
0
0
0
0
0
0
0
0
0
0
0
0
0
0
0
0
0
0
0
0
0
0
0
0
0
0
0
0
0
0
0
0
0
0
0
0
0
0
0
0
0
0
0
0
0
0
0
0
0
0
0
0
0
0
0
0
0
0
0
0
0
0
0
0
0
0
0
0
0
0
0
0
0
0
0
0
0
0
0
0
0
0
0
0
0
0
0
0
0
0
0
0
0
0
0
0
0
0
0
0
0
0
0
0
0
0
0
0
0
0
0
0
0
0
0
0
0
0
0
0
0
0
0
0
0
0
0
0
0
0
0
0
0
0
0
0
0
0
0
0
0
0
0
0
0
0
0
0
0
0
0
0
0
0
0
0
0
0
0
0
0
0
0
0
0
0
0
0
0
0
0
0
0
0
0
0
0
0
0
0
0
0
0
0
0
0
0
0
0
0
0
0
0
0
0
0
0
0
0
0
0
0
0
0
0
0
0
0
0
0
0
0
0
0
0
0
0
0
0
0
0
0
0
0
0
0
0
0
0
0
0
0
0
0
0
0
0
0
0
0
0
0
0
0
0
0
0
0
0
0
0
0
0
0
0
0
0
0
0
0
0
0
0
0
0
0
0
0
0
0
0
0
0
0
0
0
0
0
0
0
0
0
0
0
0
0
0
0
0
0
0
0
0
0
0
0
0
0
0
0
0
0
0
0
0
0
0
0
0
0
0
0
0
0
0
0
0
0
0
0
0
0
0
0
0
0
0
0
0
0
0
0
0
0
0
0
0
0
0
0
0
0
0
0
0
0
0
0
0
0
0
0
0
0
0
0
0
0
0
0
0
0
0
0
0
0
0
0
0
0
0
0
0
0
0
0
0
0
0
0
0
0
0
0
0
0
0
0
0
0
0
0
0
0
0
0
0
0
0
0
0
0
0
0
0
0
0
0
0
0
0
0
0
0
0
0
0
0
0
0
0
0
0
0
0
0
0
0
0
0
0
0
0
0
0
0
0
0
0
0
0
0
0
0
0
0
0
0
0
0
0
0
0
0
0
0
0
0
0
0
0
0
0
0
0
0
0
0
0
0
0
0
0
0
0
0
0
0
0
0
0
0
0
0
0
0
0
0
0
0
0
0
0
0
0
0
0
0
0
0
0
0
0
0
0
0
0
0
0
0
0
0
0
0
0
0
0
0
0
0
0
0
0
0
0
0
0
0
0
0
0
0
0
0
0
0
0
0
0
0
0
0
0
0
0
0
0
0
0
0
0
0
0
0
0
0
0
0
0
0
0
0
0
0
0
0
0
0
0
0
0
0
0
)


866
(
218.93877
218.93877
218.93877
0
0
174.72384
158.93265
0
0
0
0
218.93877
0
0
0
0
0
158.13299
0
0
0
0
0
0
0
175.23811
140.37641
218.93877
0
0
218.93877
218.93877
218.93877
218.93877
218.93877
146.16183
218.93877
218.93877
218.93877
218.93877
115.4912
115.151
218.93877
137.10763
0
0
0
0
0
0
0
218.93877
218.93877
218.93877
218.93877
218.93877
218.93877
218.93877
218.93877
207.22806
218.93877
218.93877
218.93877
218.93877
218.93877
133.18559
0
65.93759
119.27603
0
0
0
0
0
0
0
0
0
0
0
0
0
0
0
0
0
0
0
0
0
0
0
0
0
0
0
0
0
0
0
0
0
0
0
0
0
0
0
0
0
0
0
0
0
0
0
0
0
0
0
0
0
0
0
0
0
0
0
0
0
0
0
0
0
0
0
0
0
0
0
0
0
0
0
0
0
0
0
0
0
0
0
0
0
0
0
0
0
0
0
0
0
0
0
0
0
0
0
0
0
0
0
0
0
0
0
0
0
0
0
0
0
0
0
0
0
0
0
0
0
0
0
0
0
0
0
0
0
0
0
0
0
0
0
0
0
0
0
0
0
0
0
0
0
0
0
0
0
0
0
0
0
0
0
0
0
0
0
0
0
0
0
0
0
0
0
0
0
0
0
0
0
0
0
0
0
0
0
0
0
0
0
0
0
0
0
0
0
0
0
0
0
0
0
0
0
0
0
0
0
0
0
0
0
0
0
0
0
0
0
0
0
0
0
0
0
0
0
0
0
0
0
0
0
0
0
0
0
0
0
0
0
0
0
0
0
0
0
0
0
0
0
0
0
0
0
0
0
0
0
0
0
0
0
0
0
0
0
0
0
0
0
0
0
0
0
0
0
0
0
0
0
0
0
0
0
0
0
0
0
0
0
0
0
0
0
0
0
0
0
0
0
0
0
0
0
0
0
0
0
0
0
0
0
0
0
0
0
0
0
0
0
0
0
0
0
0
0
0
0
0
0
0
0
0
0
0
0
0
0
0
0
0
0
0
0
0
0
0
0
0
0
0
0
0
0
0
0
0
0
0
0
0
0
0
0
0
0
0
0
0
0
0
0
0
0
0
0
0
0
0
0
0
0
0
0
0
0
0
0
0
0
0
0
0
0
0
0
0
0
0
0
0
0
0
0
0
0
0
0
0
0
0
0
0
0
0
0
0
0
0
0
0
0
0
0
0
0
0
0
0
0
0
0
0
0
0
0
0
0
0
0
0
0
0
0
0
0
0
0
0
0
0
0
0
0
0
0
0
0
0
0
0
0
0
0
0
0
0
0
0
0
0
0
0
0
0
0
0
0
0
0
0
0
0
0
0
0
0
0
0
0
0
0
0
0
0
0
0
0
0
0
0
0
0
0
0
0
0
0
0
0
0
0
0
0
0
0
0
0
0
0
0
0
0
0
0
0
0
0
0
0
0
0
0
0
0
0
0
0
0
0
0
0
0
0
0
0
0
0
0
0
0
0
0
0
0
0
0
0
0
0
0
0
0
0
0
0
0
0
0
0
0
0
0
0
0
0
0
0
0
0
0
0
0
0
0
0
0
0
0
0
0
0
0
0
0
0
0
0
0
0
0
0
0
0
0
0
0
0
0
0
0
0
0
0
0
0
0
0
0
0
0
0
0
0
0
0
0
0
0
0
0
0
0
0
0
0
0
0
0
0
0
0
0
0
0
0
0
0
0
0
0
0
0
0
0
0
0
0
0
0
0
0
0
0
0
0
0
0
0
0
0
0
0
0
0
0
0
0
0
0
0
0
0
0
0
0
0
0
0
0
0
0
0
0
0
0
0
0
0
0
0
0
0
0
0
0
0
0
0
0
0
0
0
0
0
0
0
0
0
0
0
0
0
0
0
0
0
0
0
0
0
0
0
0
0
0
0
0
0
0
0
0
0
0
0
0
0
0
0
0
0
0
0
0
0
0
0
0
0
0
0
0
0
0
0
0
0
0
0
0
0
0
0
0
0
0
0
0
0
0
0
0
0
0
0
0
0
0
0
0
0
0
0
0
0
0
0
0
0
0
0
0
0
0
)


866
(
180.4505
180.4505
180.4505
0
0
0
180.4505
0
0
0
138.23068
180.4505
129.50541
137.4884
0
0
0
0
0
0
0
0
0
0
0
180.4505
180.4505
180.4505
180.4505
180.4505
180.4505
180.4505
180.4505
180.4505
180.4505
180.4505
180.4505
180.4505
180.4505
180.4505
180.4505
180.4505
180.4505
180.4505
180.4505
180.4505
180.4505
180.4505
180.4505
180.4505
180.4505
180.4505
180.4505
180.4505
180.4505
180.4505
180.4505
180.4505
180.4505
180.4505
180.4505
180.4505
180.4505
180.4505
180.4505
180.4505
180.4505
180.4505
180.4505
0
0
0
0
0
0
0
0
0
0
0
0
0
0
0
0
0
0
0
0
0
0
0
0
0
0
0
0
0
0
0
0
0
0
0
0
0
0
0
0
0
0
0
0
0
0
0
0
0
0
0
0
0
0
0
0
0
0
0
0
0
0
0
0
0
0
0
0
0
0
0
0
0
0
0
0
0
0
0
0
0
0
0
0
0
0
0
0
0
0
0
0
0
0
0
0
0
0
0
0
0
0
0
0
0
0
0
0
0
0
0
0
0
0
0
0
0
0
0
0
0
0
0
0
0
0
0
0
0
0
0
0
0
0
0
0
0
0
0
0
0
0
0
0
0
0
0
0
0
0
0
0
0
0
0
0
0
0
0
0
0
0
0
0
0
0
0
0
0
0
0
0
0
0
0
0
0
0
0
0
0
0
0
1.3650296
1.3650296
1.3650296
1.3650296
1.3650296
1.3650296
1.3650296
1.3650296
1.3650296
1.3650296
1.3650296
1.3650296
1.3650296
1.3650296
1.3650296
1.3650296
1.3650296
1.3650296
1.3650296
1.3650296
1.3650296
1.3650296
1.3650296
1.3650296
1.3650296
1.3650296
1.3650296
1.3650296
1.3650296
1.3650296
1.3650296
1.3650296
1.3650296
1.3650296
1.3650296
1.3650296
1.3650296
1.3650296
1.3650296
1.3650296
1.3650296
1.3650296
1.3650296
1.3650296
1.3650296
1.3650296
1.3650296
1.3650296
1.3650296
1.3650296
1.3650296
1.3650296
1.3650296
1.3650296
1.3650296
1.3650296
1.3650296
1.3650296
1.3650296
1.3650296
1.3650296
1.3650296
1.3650296
1.3650296
1.3650296
1.3650296
1.3650296
1.3650296
1.3650296
1.3650296
1.3650296
1.3650296
1.3650296
1.3650296
1.3650296
1.3650296
1.3650296
1.3650296
1.3650296
1.3650296
1.3650296
1.3650296
1.3650296
1.3650296
1.3650296
1.3650296
1.3650296
1.3650296
1.3650296
1.3650296
1.3650296
1.3650296
1.3650296
1.3650296
1.3650296
1.3650296
1.3650296
1.3650296
1.3650296
1.3650296
1.3650296
1.3650296
1.3650296
1.3650296
1.3650296
1.3650296
1.3650296
1.3650296
1.3650296
1.3650296
1.3650296
1.3650296
1.3650296
1.3650296
1.3650296
1.3650296
1.3650296
1.3650296
1.3650296
1.3650296
1.3650296
1.3650296
1.3650296
1.3650296
1.3650296
1.3650296
1.3650296
1.3650296
1.3650296
1.3650296
1.3650296
1.3650296
1.3650296
1.3650296
1.3650296
1.3650296
1.3650296
1.3650296
1.3650296
1.3650296
1.3650296
1.3650296
1.3650296
1.3650296
1.3650296
1.3650296
1.3650296
1.3650296
1.3650296
1.3650296
1.3650296
1.3650296
1.3650296
1.3650296
1.3650296
1.3650296
1.3650296
1.3650296
1.3650296
1.3650296
1.3650296
1.3650296
1.3650296
1.3650296
1.3650296
1.3650296
1.3650296
1.3650296
1.3650296
1.3650296
1.3650296
1.3650296
1.3650296
1.3650296
1.3650296
1.3650296
1.3650296
1.3650296
1.3650296
1.3650296
1.3650296
1.3650296
1.3650296
1.3650296
1.3650296
1.3650296
1.3650296
1.3650296
1.3650296
1.3650296
1.3650296
1.3650296
1.3650296
1.3650296
1.3650296
1.3650296
1.3650296
1.3650296
1.3650296
1.3650296
1.3650296
1.3650296
1.3650296
1.3650296
1.3650296
1.3650296
1.3650296
1.3650296
1.3650296
1.3650296
1.3650296
1.3650296
1.3650296
1.3650296
1.3650296
1.3650296
1.3650296
1.3650296
1.3650296
1.3650296
1.3650296
1.3650296
1.3650296
1.3650296
1.3650296
1.3650296
1.3650296
1.3650296
1.3650296
1.3650296
1.3650296
1.3650296
1.3650296
1.3650296
1.3650296
1.3650296
1.3650296
1.3650296
1.3650296
1.3650296
1.3650296
1.3650296
1.3650296
1.3650296
1.3650296
1.3650296
1.3650296
1.3650296
1.3650296
1.3650296
1.3650296
1.3650296
1.3650296
1.3650296
1.3650296
1.3650296
1.3650296
1.3650296
1.3650296
1.3650296
1.3650296
1.3650296
1.3650296
1.3650296
1.3650296
1.3650296
1.3650296
1.3650296
1.3650296
1.3650296
1.3650296
1.3650296
1.3650296
1.3650296
1.3650296
1.3650296
1.3650296
1.3650296
1.3650296
1.3650296
1.3650296
1.3650296
1.3650296
1.3650296
1.3650296
1.3650296
1.3650296
1.3650296
1.3650296
1.3650296
1.3650296
1.3650296
1.3650296
1.3650296
1.3650296
1.3650296
1.3650296
1.3650296
1.3650296
1.3650296
1.3650296
1.3650296
1.3650296
1.3650296
1.3650296
1.3650296
1.3650296
1.3650296
1.3650296
1.3650296
1.3650296
1.3650296
1.3650296
1.3650296
1.3650296
1.3650296
1.3650296
1.3650296
1.3650296
1.3650296
1.3650296
1.3650296
1.3650296
1.3650296
1.3650296
1.3650296
1.3650296
1.3650296
1.3650296
1.3650296
1.3650296
1.3650296
1.3650296
1.3650296
1.3650296
1.3650296
1.3650296
1.3650296
1.3650296
1.3650296
1.3650296
1.3650296
1.3650296
1.3650296
1.3650296
1.3650296
1.3650296
1.3650296
1.3650296
1.3650296
1.3650296
1.3650296
1.3650296
1.3650296
1.3650296
1.3650296
1.3650296
1.3650296
1.3650296
1.3650296
1.3650296
1.3650296
1.3650296
1.3650296
1.3650296
1.3650296
1.3650296
1.3650296
1.3650296
1.3650296
1.3650296
1.3650296
1.3650296
1.3650296
1.3650296
1.3650296
1.3650296
1.3650296
1.3650296
1.3650296
1.3650296
1.3650296
1.3650296
1.3650296
1.3650296
1.3650296
1.3650296
1.3650296
1.3650296
1.3650296
1.3650296
1.3650296
1.3650296
1.3650296
1.3650296
1.3650296
1.3650296
1.3650296
1.3650296
1.3650296
1.3650296
1.3650296
1.3650296
1.3650296
1.3650296
1.3650296
1.3650296
1.3650296
1.3650296
1.3650296
1.3650296
1.3650296
1.3650296
1.3650296
1.3650296
1.3650296
1.3650296
1.3650296
1.3650296
1.3650296
1.3650296
1.3650296
1.3650296
1.3650296
1.3650296
1.3650296
1.3650296
1.3650296
1.3650296
1.3650296
1.3650296
1.3650296
1.3650296
1.3650296
1.3650296
1.3650296
1.3650296
1.3650296
1.3650296
1.3650296
1.3650296
1.3650296
1.3650296
1.3650296
1.3650296
1.3650296
1.3650296
1.3650296
1.3650296
1.3650296
1.3650296
1.3650296
1.3650296
1.3650296
1.3650296
1.3650296
1.3650296
1.3650296
1.3650296
1.3650296
1.3650296
1.3650296
1.3650296
1.3650296
1.3650296
1.3650296
1.3650296
1.3650296
1.3650296
1.3650296
1.3650296
1.3650296
1.3650296
1.3650296
1.3650296
1.3650296
1.3650296
1.3650296
1.3650296
1.3650296
1.3650296
1.3650296
1.3650296
1.3650296
1.3650296
1.3650296
1.3650296
1.3650296
1.3650296
1.3650296
1.3650296
1.3650296
1.3650296
1.3650296
1.3650296
1.3650296
1.3650296
1.3650296
1.3650296
1.3650296
1.3650296
1.3650296
1.3650296
1.3650296
1.3650296
1.3650296
1.3650296
1.3650296
1.3650296
1.3650296
1.3650296
1.3650296
1.3650296
1.3650296
1.3650296
1.3650296
1.3650296
1.3650296
1.3650296
1.3650296
1.3650296
1.3650296
1.3650296
1.3650296
1.3650296
1.3650296
1.3650296
1.3650296
1.3650296
1.3650296
1.3650296
1.3650296
1.3650296
1.3650296
1.3650296
1.3650296
1.3650296
1.3650296
1.3650296
1.3650296
1.3650296
1.3650296
1.3650296
1.3650296
1.3650296
1.3650296
1.3650296
1.3650296
1.3650296
1.3650296
1.3650296
1.3650296
1.3650296
1.3650296
1.3650296
1.3650296
1.3650296
1.3650296
1.3650296
1.3650296
1.3650296
1.3650296
1.3650296
1.3650296
1.3650296
1.3650296
1.3650296
1.3650296
1.3650296
1.3650296
1.3650296
1.3650296
1.3650296
1.3650296
1.3650296
1.3650296
1.3650296
1.3650296
1.3650296
1.3650296
1.3650296
1.3650296
1.3650296
1.3650296
1.3650296
1.3650296
1.3650296
1.3650296
1.3650296
1.3650296
1.3650296
1.3650296
1.3650296
1.3650296
1.3650296
1.3650296
1.3650296
1.3650296
1.3650296
1.3650296
1.3650296
1.3650296
1.3650296
1.3650296
1.3650296
1.3650296
1.3650296
1.3650296
1.3650296
1.3650296
1.3650296
1.3650296
1.3650296
1.3650296
)

)


// ************************************************************************* //
