/*--------------------------------*- C++ -*----------------------------------*\
  =========                 |
  \\      /  F ield         | OpenFOAM: The Open Source CFD Toolbox
   \\    /   O peration     | Website:  https://openfoam.org
    \\  /    A nd           | Version:  8
     \\/     M anipulation  |
\*---------------------------------------------------------------------------*/
/*   Windows 32 and 64 bit porting by blueCAPE: http://www.bluecape.com.pt   *\
|  Based on Windows porting (2.0.x v4) by Symscape: http://www.symscape.com   |
\*---------------------------------------------------------------------------*/
FoamFile
{
    version     2.0;
    format      ascii;
    class       scalarListList;
    location    "constant/vegetation";
    object      kcLAIboundary;
}
// * * * * * * * * * * * * * * * * * * * * * * * * * * * * * * * * * * * * * //


5
(

421
(
0.0027250023
0.0067240615
0.011974037
0
2.2397358e-05
0
0
0
0
0
0.00072748064
0
0
0
0.00074751055
0
0
0
0.00076627792
0
0
0.0071883746
0.2074507
0.19653462
1.3140082
0.98663763
0.46437971
0.52355336
1.0265569
0.86787376
0
0
0.15755802
1.1632281
1.0780368
0.063648385
0.03248384
0.012221931
1.234
0.34236235
0.65427074
0.064217639
0.022725011
0.58281128
0.19227307
0.0054672959
0.28959128
0.46861293
0.52989241
0.1798553
0.074871952
0.37952278
0.77301519
0.66625471
0
0.38467071
0
0
0
0
0
0
0.007577519
0
0
0
0
0
0.30302171
0.033861166
0.25127261
0.066306069
0
0
0.0020883746
0.0018425458
0.13532214
0.13253466
0.030136615
0.21165813
0
0.091506211
0
0.1968085
0.0058384357
0.15805526
1.3682002
0.42157074
0.020201007
0.50102126
1.5799465
0.38332103
1.0707238
1.0007713
0.23927154
0.13343357
0.57527391
0.44428942
0.062784841
0.032179608
0.025381604
0.045065874
0.0054229936
0.0061589148
0.042391664
0.0079530721
0.0049946026
0.031069069
0.0076688459
0.19371515
0.16841418
0.047981845
0
0.016937744
0.0026875575
0.0014100054
0
0.00097511878
0
0.0022832056
0.0018624252
0.0001979891
0.00057020962
0.0025336154
0.022068986
0.017788544
0
0
0
0.00084839945
1.5687941e-05
0.00071763913
0
0.0022342443
0.012372953
0.024328924
0.017931791
0
0.00026977259
9.5581258e-05
0
0
0
0.011714643
0.009904052
0.0016407538
0
0
0
0.011898246
0.0022981678
0.015108244
0.011143889
0
0
0
0
0.00024258319
0.0012156526
0.014807583
0.014467108
0.00020558855
0
0.00021101548
0.0016817116
0.001819746
0.0044183706
0.011501475
0.0078056264
0.011262207
0.0068224752
0.0078770955
0.0019532795
0.0038302092
0.0045360987
0.0072513351
0.020039435
0.014062125
0.021098526
0
0
0.0091096323
0.0060850526
0.0015500829
0.0030761233
0.0059867467
0.00027387545
0.00019914251
0.0011973007
0.0027546984
0
0
0
0.0040687668
0.0049978384
0.00049926382
0.0028059258
0.001287859
3.788052e-05
0
0.00015640245
0
0.0033977888
0.0077727458
0.013853883
0.013066042
0.0065845773
0.013120031
0.010826095
0.0029015631
0.0038047501
0.0026331072
0.0082414515
0.01150827
0.017974986
0.02055645
0.018423014
0.016850176
0.0072141775
0.0036984819
0.0022852292
0.00095858209
0.00594461
0.021334186
0.017504431
0.023625976
0.020599171
0.0081412873
0.0074425808
0.01589272
0.00045321264
0.012834239
0.0042895539
0
0.0010605398
0.0035417636
0.004167507
0.0018869171
0.0017727221
0.0051458441
0.0078861399
0.012737917
0.0024003232
0.0052808624
0.0021391337
0.015201129
0.0086464088
0.01220754
0.0016416944
0.0022249943
0.0010494064
0.0015661397
9.810553e-05
0.00045746633
1.0120681e-06
0.0083801583
0.0050300293
0.0035504176
0
0
0
0
0
0
0
0
0
0
0.0024532018
0.017501579
8.8893711e-05
0
0
0
0
0.007713206
0.012106138
0.0074836977
0.0071514108
0.0024859207
0.012391813
0
0.0076115604
0.0043918783
0
0.0014101089
0.0027570431
0.00094357845
0
0
0
0
0
0.0020063594
0.002829033
0.00092290656
0
0
0.0014281265
0.0019224494
0.0024178295
0.0023503966
0.00050336057
0.00053506713
0.00018178108
0.0001932757
0
0
0
0
0
0
0
0
0
0
0
0
0
0
0
0
0
0
0
0
0
0
0
0
0
0
0
0
0
0
0
0
0
0
6.7062018e-07
0
1.9603535e-05
0
0
0
0
0
0
7.6674178e-05
0.65020249
0.43167424
0.55216982
0.50199431
0.76746916
0.86470279
0.33484094
0.16654406
0.31716632
0.53552847
0.11230915
0.22515564
0.89261979
0.32587167
0.74134479
0.34887177
0.16298741
0.23290889
1.0115525
0.48911803
0.15271615
0.54226697
0.22496948
0.27554738
0.43725514
0.63026726
0.49913576
0.011206976
0.019624755
0.0066743394
0.62595292
0.4103879
0.30317424
0.98085795
0.55789832
0.3149993
0.40910572
0.18074856
0.0962448
0.30867254
0.14843537
0.22220479
0.060017521
0.059733156
0.0092171222
0.1308143
0.079876105
0.17450077
0.44715261
0.96950308
0.14629365
0.074756262
0.093209199
0.29064929
0.021944971
0.038547141
0.19571808
1.2199183
0.86193704
0.32513047
0.025682313
0.013160378
0.024646753
0.038717294
0.014923554
0.57880407
0.67706053
0.25497975
0.29289575
0.1584161
0.30212195
)


421
(
0.0020744016
0.00039567165
1.242631e-05
0
0
0
0
0
0
0
1.5992401e-06
0
0
0
2.625314e-05
0
0
0
2.4293656e-05
0
0
0.013587369
0.33644352
0.025571563
1.0073599
1.1463321
0.62194771
0.78402172
0.8906821
1.1187897
0
0
0.14616805
0.8689605
1.0743451
0.20531241
0.077508021
0.096410497
1.4613353
0.4000414
0.80464617
0.10441639
0.031778722
0.50615383
0.37572363
0.054983072
0.51675498
0.57011848
0.87035928
0.35130318
0.016297267
0.67316009
1.112494
1.0244752
0
0.17673529
0
0
0
0
0.0013786287
0
0.00087014905
0
0
0
0
0
0.28728323
0.074571139
0.39066691
0.079059821
3.3107427e-05
2.5307015e-07
8.030733e-05
0.013514764
0.37303762
0.24097751
0.11449323
0.42150434
0
0.004383399
0.0023898879
0.38438383
0.00041002371
0.00025656731
1.0295007
0.01040185
0.00021265602
0.37963389
1.0636302
0.46190227
1.1909129
1.397846
0.42565727
0.042753673
0.65621982
0.44462112
0.068147633
0.13621792
0.13388571
0.13906989
0.024378308
0.019395339
0.12115251
0.042708643
0
0.075802216
0.056986931
0.10894526
0.24344511
0.12380751
0
2.4886566e-06
0.0048816899
0.00086710571
0
0.00022514423
0
0.0032448985
0.0019443449
0
0
0.0049006989
0.051192703
0.025072428
0
0
0
0
0
0
0
0
0.0062585435
0.050316504
0.024206354
0
0
0
0
0
0
0
0
0
0
0
0
0
0.00051637964
0.011169913
0.010794727
0
0
0
0
0
0
0.01055489
0.0098661878
0
0
0
0
0
0
0
0
0
0
0
0
0
0
0.0082302042
0.038078443
0.0089780723
0.037305094
0
0
0.0001933036
0
0
0
0.00055794928
0
0
0
0
0
0
0
0
0
0
0
0
0
0
0
0
0.024888699
0.019599105
0.049153097
0.036328134
0.014529795
0.039814606
0.019876685
0.019842838
0.0018652728
0.011741555
0.0051584195
0.010633012
0.019659902
0.040784706
0.031834298
0.017859987
0.0044378407
0.0017983688
0
0
0.0022958422
0.031390833
0.024222028
0.049603894
0.036982865
0.0043075007
0
0.015823471
0
0.010183269
0
0
0
0
0
0
0
0.00085928711
0.0016929918
0.024326002
0.0088563926
0.0077577192
0.0046004344
0.023161548
0.010591616
0.012557902
0.0010968149
0
0
0
0
0
0
0.0025935036
0
0
0
0
0
0
0
0
0
0
0
0
0
0.023354403
0
0
0
0
0
0
0.029469501
0.030123344
0.021921917
0.013906086
0.0089949214
0
0
0
0
0.0014227756
0.0071140687
0.00037634284
0
0
0
0
0
0.0038317397
0.0092759696
0.00048984185
0
0
0.0019408097
0.0029215883
0.0061926017
0.0047798889
0
0
0
0
0
0
0
0
0
0
0
0
0
0
0
0
0
0
0
0
0
0
0
0
0
0
0
0
0
0
0
0
0
0
0
0
0
0
0
0
0
0
0
0
0
0
0
0
0.65555138
0.31094561
0.49515925
0.57111591
0.96134863
0.8769463
0.37708298
0.13762814
0.36095547
0.67722273
0.099577448
0.22806389
0.79935581
0.44742764
0.72986446
0.31963781
0.11962013
0.16628643
0.76965473
0.36545568
0.088854596
0.4285646
0.29282725
0.2747904
0.55465303
0.67536846
0.68674658
0.039665253
0
0.042342037
0.47052709
0.44400692
0.34161206
0.82807357
0.59828288
0.27427244
0.34329574
0.19214688
0.090590104
0.28114768
0.13241616
0.22437146
0.096834508
0.068845166
0.015114888
0.18906377
0.14508387
0.1657463
0.3327372
1.0250976
0.25032679
0.14058471
0.068723001
0.36212362
0.028655449
0.05683309
0.13902648
1.1969114
0.61109509
0.26022026
0.053685395
0.029217285
0.071041052
0.025237301
0.017431368
0.57798931
0.70641233
0.25392573
0.32051894
0.13770856
0.33116759
)


421
(
0.045220662
0.16300376
0.17711032
0
0
0
0
0
0.0042564751
0
0
0
0
0
0
0
0
0
0
0
0
0.11296287
0.39433597
0.2482266
0.36258547
0.78512436
0.72658272
0.61974749
0.42080271
0.99220584
0
0
0.5220793
0.53470092
1.0058099
0.28678554
0
0.29992234
0.61737839
0.43552669
0.78914949
0.14872295
0.21765787
0.22076174
0.68076844
0.11378733
0.71346759
0.45404698
0.60429607
0.45490105
0.23910203
0.69350971
0.8069286
0.78852745
0
0.077321895
0
0
0
0
0.022667704
0
0
0
0
0
0
0
0.17283423
0.16065472
0.31789477
0.080867264
0
0
0
0.09088224
0.60428902
0.2028873
0.18348147
0.35927192
0
0.0016981622
0.00048273224
0.39931781
0
0.0020172144
0.92077866
0.0011816551
0
0.51337103
0.52840445
0.36138767
0.77943923
0.86032435
0.49976288
0.00034494929
0.89775526
0.70706631
0.37834271
0.21981892
0.072322519
0.038244788
0.053831687
0.087136214
0
0
0
0
0.036201658
0.092911192
0.43181935
0.48634311
0
0.043120213
0.0050206482
0.0073812695
0
0.006806517
0
0.0070247684
0.0072158043
0.00099709995
0.0047888259
0
0
0
0
0
0
0
0
0
0
0
0
0
0
0
0
0
0
0
0
0
0
0
0
0
0
0
0
0
0
0
0
0
0
0
0
0
0
0
0
0
0
0
0
0
0
0
0
0
0
0
0
0
0
0
0
0
0
0
0
0
0
0
0
0
0
0
0
0
0
0
0
0
0
0
0
0
0
0
0
0
0
0
0
0
0
0
0
0
0
0
0
0
0
0
0
0
0
0
0
0
0
0
0
0
0
0
0
0
0
0
0
0
0
0
0
0
0
0
0
0
0
0
0
0
0
0
0
0
0
0
0
0
0
0
0
0
0
0
0
0
0
0
0
0
0
0
0
0
0
0
0
0
0
0
0
0
0
0
0
0
0
0.0026590336
0
0.00285225
0
0
0
0
0
0
0
0
0
0
0
0.0016358261
0
7.5211434e-05
0.00025407482
0.0019027177
0
0
0
0
0
0
0
0
0
0
0
0
0
0
0
0
0
0
0
0
0
0
0
0
0
0
0
0
0
0
0.00010240972
0
0
0
0
0
0
0
0
0
0
0
0
0
0
0
0.44148975
0.25914334
0.33054399
0.59347095
0.70052854
0.42664932
0.42521392
0.12518329
0.33834096
0.64266641
0.10721968
0.28960156
0.56025679
0.36358126
0.44424637
0.43472843
0.19028883
0.1421128
0.75948001
0.53593102
0.11033652
0.35390518
0.22012031
0.23228374
0.44880404
0.59447217
0.46171754
0.066603653
0
0.10257504
0.3493894
0.27900572
0.26929197
0.68656965
0.44656558
0.27250555
0.25609501
0.19618164
0.069089692
0.16793861
0.079295057
0.14939645
0.11510007
0.067580654
0.015795558
0.15715915
0.08459085
0.11392048
0.45587541
0.57313907
0.24258438
0.18414518
0.049606085
0.31849231
0.0164024
0.081132859
0.072546816
0.70015924
0.53836313
0.23841297
0.091652148
0.045725445
0.062185464
0.028518923
0.018544351
0.33825304
0.44202816
0.37271656
0.41658521
0.18900566
0.28079432
)


421
(
0.1031695
0.26976566
0.19978383
0
0.0085965391
0
0
0
0.024156716
0.0048507779
0.0091675198
0
0
0
0.011933317
0
0
0
0
0.025228323
0
0.13446529
0.63502619
0.3140633
0.39667735
0.54192152
0.5777907
0.7722247
0.46491085
0.64365988
0
0
0.5158552
0.39742896
0.94292622
0.17384392
0
0.23324199
0.43961487
0.20700473
0.80743673
0.205028
0.47593288
0.058510706
1.1094616
0.085553149
0.76039145
0.30261761
0.89612046
0.6586294
0.5408864
0.68545882
0.56842684
0.81087758
0
0.048229337
0
0
0
0
0.08067281
0
0.011664866
0
0
0
0
0
0.11844499
0.27669943
0.4349135
0.058303237
0
0
0
0.25262284
0.85613315
0.1284637
0.28939705
0.34032926
0
0.016850823
0.0080541834
0.29666019
0.0089833653
0.0029941365
0.72820332
0.0037738774
0.00072423261
0.2949759
0.34682215
0.26262175
0.6628587
0.82138996
0.40364455
0.026094592
0.60419343
0.57227225
0.46681459
0.11249458
0
0
0.0054398284
0.080574143
0
0
0
0
0
0.16698598
0.4920922
0.28151036
0
0.11592915
0.0020225561
0.0019971113
0.00097094069
0.006330472
0
0.0017365865
0.00090086141
0.006401037
0.0079919663
0
0
0
0
0
0
0
0
0
0
0
0
0
0
0
0
0
0
0
0
0
0
0
0
0
0
0
0
0
0
0
0
0
0
0
0
0
0
0
0
0
0
0
0
0
0
0
0
0
0
0
0
0
0
0
0
0
0
0
0
0
0
0
0
0
0
0
0
0
0
0
0
0
0
0
0
0
0
0
0
0
0
0
0
0
0
0
0
0
0
0
0
0
0
0
0
0
0
0
0
0
0
0
0
0
0
0
0
0
0
0
0
0
0
0
0
0
0
0
0
0
0
0
0
0
0
0
0
0
0
0
0
0
0
0
0
0
0
0
0
0
0
0
0
0
0
0
0
0
0
0
0
0
0
0
0
0
0
0
0
0
0
0
0.00088395509
0
0
0
0
0
0
0
0.00021575875
0
0
0
0
0
0.0001217191
0.00069666787
0
0.0014171546
0
0.0012368535
0
0
0
0
0
0
0
0
0
0
0
0
0
0
0
0
0
0
0
0
0
0
0
0
0
0
0
0
0
0
0
0
0
0
0
0
0
0
0
0
0
0
0
0
0.26965558
0.15266559
0.16110866
0.44380591
0.53640187
0.28080038
0.39305812
0.13511406
0.4446994
0.52504485
0.11055459
0.3708496
0.46995659
0.48356588
0.407537
0.49380856
0.21120738
0.15826806
0.7254885
0.54468442
0.12691271
0.37620169
0.29954104
0.28334787
0.54367301
0.73091669
0.62850263
0.13959107
0.01345918
0.22695988
0.37646042
0.30660837
0.28784789
0.81182867
0.50620018
0.26254528
0.35477156
0.32156642
0.11190811
0.22803477
0.10725677
0.13183397
0.18783012
0.10766249
0.017705202
0.1724123
0.075071911
0.10425386
0.42122856
0.52259988
0.42043456
0.35790567
0.029211284
0.35042594
0.017134139
0.07668583
0.069382691
0.71206651
0.42280167
0.26265754
0.18704735
0.031455925
0.042001499
0.023327458
0.011063035
0.28767884
0.39465501
0.25234129
0.35447029
0.2041694
0.43468688
)


421
(
0.4874403
0.014892613
0.0062647357
0.0065095735
0.0044808324
3.7117365e-05
0
0
0.084562885
0.056620149
0.11744142
0.0042508179
0.00071313828
0
0.006086462
0.011873511
0
0.00091025941
0.012438703
0.21846337
0
6.2119262e-08
0.90243349
0.95343263
0.69698604
0.53720247
0.4512489
1.3934638
0.86233825
0.89691107
0
0
0.059656148
0.9123107
0.79984554
0
0
0
1.5017729
0.11993162
0.83315431
0
0.17840497
0.38701354
1.0866223
0
0.7269639
0.73133185
1.4968703
1.3279228
0.3518955
0.67314277
1.2191365
1.4368047
0
0.071591735
0
0
0
0.00086818559
0.11000236
0
0.0039899806
0.00020195908
0.0033737638
0
0
0
0.1075878
0.2148432
0.41005823
0.0336211
1.035916e-05
0
0.00028516494
0.12836151
0.77884769
0.1238385
0.10208414
0.17872978
0
0.033656997
0.013991468
0.24147213
0.0040388065
0
0.51788266
0.012517137
0.00015583051
0.017672972
0.35783508
0.18924632
0.91030718
1.375441
0.2628273
0.046027767
0.4454962
0.084798699
0
0
0
0
2.5449126e-09
1.9854322e-08
0
1000
0
0
0
0.00011542943
0.17611949
0.00079565779
0
0.57847018
1000
1000
1000
1000
1000
1000
1000
1000
1000
1000
1000
1000
1000
1000
1000
1000
1000
1000
1000
1000
1000
1000
1000
1000
1000
1000
1000
1000
1000
1000
1000
1000
1000
1000
1000
1000
1000
1000
1000
1000
1000
1000
1000
1000
1000
1000
1000
1000
1000
1000
1000
1000
1000
1000
1000
1000
1000
1000
1000
1000
1000
1000
1000
1000
1000
1000
1000
1000
1000
1000
1000
1000
1000
1000
1000
1000
1000
1000
1000
1000
1000
1000
1000
1000
1000
1000
1000
1000
1000
1000
1000
1000
1000
1000
1000
1000
1000
1000
1000
1000
1000
1000
1000
1000
1000
1000
1000
1000
1000
1000
1000
1000
1000
1000
1000
1000
1000
1000
1000
1000
1000
1000
1000
1000
1000
1000
1000
1000
1000
1000
1000
1000
1000
1000
1000
1000
1000
1000
1000
1000
1000
1000
1000
1000
1000
1000
1000
1000
1000
1000
1000
1000
1000
1000
1000
1000
1000
1000
1000
1000
1000
1000
1000
1000
1000
1000
1000
1000
1000
1000
1000
1000
1000
1000
1000
1000
1000
1000
1000
1000
1000
1000
1000
1000
1000
1000
1000
1000
1000
1000
1000
1000
1000
1000
1000
1000
1000
1000
1000
1000
1000
1000
1000
1000
1000
1000
1000
1000
1000
1000
1000
1000
1000
1000
1000
1000
1000
1000
1000
1000
1000
1000
1000
0.00018225359
0
0.00083837881
0.0036879082
0
0
0
0.0075441941
0.0044504063
0.0043996198
1.1288922e-05
0
0.0036134914
0.40855286
0.50909119
0.51075326
0.60886859
1.0341115
0.52343318
0.58923994
0.28885252
0.71686085
0.7950162
0.23835616
0.6633404
0.82317115
0.87372581
0.72128981
0.44719118
0.3599613
0.38468944
0.71132176
0.60357125
0.46061213
0.61525445
0.91729035
0.50070276
0.60697742
0.87001669
1.3839084
0.41467332
0.025640415
0.47470866
0.78453585
0.51475811
0.18082471
1.276752
0.67277944
0.46387619
0.54912524
0.80652676
0.34034654
0.29589093
0.22974962
0.12801463
0.060114305
0.10873665
0.016338511
0.15302586
0.1102356
0.17403087
0.38455103
0.83059787
0.49066919
0.26260708
0.08880213
0.23841861
0.047511308
0.02647031
0.10610454
1.2189966
0.50946148
0.41793158
0.13534546
0.0093464625
0.044438346
0.035559347
0.029794378
0.46576968
0.5477656
0.37777318
0.52820154
0.33321181
0.96012874
)

)


// ************************************************************************* //
