/*--------------------------------*- C++ -*----------------------------------*\
  =========                 |
  \\      /  F ield         | OpenFOAM: The Open Source CFD Toolbox
   \\    /   O peration     | Website:  https://openfoam.org
    \\  /    A nd           | Version:  8
     \\/     M anipulation  |
\*---------------------------------------------------------------------------*/
/*   Windows 32 and 64 bit porting by blueCAPE: http://www.bluecape.com.pt   *\
|  Based on Windows porting (2.0.x v4) by Symscape: http://www.symscape.com   |
\*---------------------------------------------------------------------------*/
FoamFile
{
    version     2.0;
    format      ascii;
    class       scalarListList;
    location    "constant/vegetation";
    object      solarLoadFineFaces;
}
// * * * * * * * * * * * * * * * * * * * * * * * * * * * * * * * * * * * * * //


5
(

1173
(
501.05251
501.05251
501.05251
501.05251
501.05251
501.05251
501.05251
501.05251
501.05251
501.05251
501.05251
501.05251
501.05251
501.05251
501.05251
0
501.05251
501.05251
0
501.05251
501.05251
501.05251
501.05251
0
501.05251
501.05251
501.05251
501.05251
0
0
0
501.05251
501.05251
501.05251
501.05251
501.05251
501.05251
501.05251
501.05251
0
501.05251
501.05251
501.05251
501.05251
500.68813
500.68813
500.66871
501.05251
501.05251
0
501.05251
501.05251
501.05251
501.05251
501.05251
501.05251
501.05251
501.05251
501.05251
501.05251
501.05251
501.05251
501.05251
501.05251
501.05251
501.05251
501.05251
501.05251
501.05251
501.05251
501.05251
501.05251
501.05251
501.05251
501.05251
501.05251
501.05251
501.05251
501.05251
134.65322
186.80649
186.80649
501.05251
501.05251
501.05251
501.05251
501.05251
501.05251
501.05251
501.05251
501.05251
501.05251
210.36353
210.36353
501.05251
501.05251
501.05251
501.05251
501.05251
501.05251
501.05251
134.65322
501.05251
501.05251
501.05251
501.05251
501.05251
501.05251
179.49619
501.05251
501.05251
501.05251
501.05251
501.05251
501.05251
501.05251
501.05251
501.05251
501.05251
501.05251
156.56681
501.05251
501.05251
501.05251
501.05251
501.05251
501.05251
145.86928
501.05251
501.05251
501.05251
501.05251
501.05251
501.05251
501.05251
501.05251
501.05251
501.05251
501.05251
170.48957
501.05251
501.05251
501.05251
501.05251
501.05251
501.05251
501.05251
501.05251
501.05251
501.05251
501.05251
501.05251
501.05251
501.05251
501.05251
501.05251
501.05251
501.05251
501.05251
501.05251
501.05251
501.05251
501.05251
501.05251
501.05251
231.29541
501.05251
501.05251
257.35493
501.05251
260.45762
257.35493
501.05251
501.05251
501.05251
501.05251
501.05251
501.05251
501.05251
501.05251
501.05251
501.05251
501.05251
501.05251
501.05251
501.05251
501.05251
501.05251
501.05251
501.05251
501.05251
501.05251
501.05251
501.05251
501.05251
501.05251
501.05251
501.05251
501.05251
501.05251
501.05251
501.05251
501.05251
501.05251
370.06889
501.05251
501.05251
501.05251
501.05251
501.05251
501.05251
501.05251
501.05251
501.05251
501.05251
501.05251
501.05251
501.05251
501.05251
501.05251
501.05251
501.05251
438.85815
501.05251
501.05251
501.05251
501.05251
501.05251
501.05251
501.05251
501.05251
501.05251
501.05251
370.06889
501.05251
501.05251
501.05251
501.05251
501.05251
370.06889
501.05251
501.05251
501.05251
501.05251
501.05251
127.55029
501.05251
127.55029
501.05251
501.05251
501.05251
501.05251
501.05251
501.05251
501.05251
501.05251
501.05251
501.05251
501.05251
501.05251
184.1848
501.05251
501.05251
501.05251
501.05251
501.05251
501.05251
501.05251
501.05251
501.05251
501.05251
501.05251
501.05251
501.05251
501.05251
405.47238
405.47238
486.17774
501.05251
501.05251
501.05251
127.55029
103.20986
171.74093
501.05251
501.05251
501.05251
171.74093
394.42908
501.05251
501.05251
501.05251
501.05251
501.05251
501.05251
501.05251
438.85815
405.47238
438.85815
370.06889
438.46383
438.46383
281.86747
501.05251
501.05251
501.05251
501.05251
501.05251
145.86928
231.29541
281.86747
501.05251
501.05251
260.45762
501.05251
501.05251
501.05251
501.05251
501.05251
501.05251
279.75092
405.47238
405.47238
501.05251
501.05251
501.05251
501.05251
501.05251
501.05251
501.05251
501.05251
501.05251
501.05251
501.05251
501.05251
501.05251
501.05251
501.05251
501.05251
501.05251
501.05251
501.05251
501.05251
501.05251
501.05251
501.05251
501.05251
501.05251
501.05251
501.05251
501.05251
501.05251
501.05251
501.05251
501.05251
501.05251
501.05251
501.05251
341.05378
341.05378
341.05378
501.05251
501.05251
501.05251
501.05251
501.05251
501.05251
501.05251
501.05251
501.05251
501.05251
501.05251
501.05251
501.05251
501.05251
501.05251
501.05251
501.05251
501.05251
501.05251
501.05251
501.05251
501.05251
501.05251
501.05251
501.05251
405.47238
501.05251
501.05251
501.05251
501.05251
501.05251
457.23829
501.05251
438.46383
438.46383
501.05251
468.90718
501.05251
501.05251
501.05251
501.05251
501.05251
501.05251
501.05251
127.55029
501.05251
501.05251
501.05251
501.05251
501.05251
501.05251
501.05251
103.20986
103.20986
501.05251
501.05251
501.05251
501.05251
501.05251
501.05251
501.05251
501.05251
438.85815
501.05251
501.05251
501.05251
501.05251
501.05251
501.05251
501.05251
501.05251
501.05251
501.05251
501.05251
501.05251
501.05251
501.05251
501.05251
501.05251
501.05251
501.05251
501.05251
501.05251
501.05251
501.05251
501.05251
501.05251
501.05251
501.05251
501.05251
501.05251
501.05251
501.05251
501.05251
501.05251
501.05251
501.05251
501.05251
501.05251
501.05251
501.05251
501.05251
501.05251
501.05251
501.05251
501.05251
501.05251
501.05251
501.05251
501.05251
501.05251
501.05251
501.05251
501.05251
501.05251
501.05251
501.05251
501.05251
501.05251
501.05251
501.05251
501.05251
501.05251
501.05251
501.05251
501.05251
501.05251
501.05251
501.05251
501.05251
501.05251
501.05251
501.05251
501.05251
501.05251
501.05251
501.05251
501.05251
501.05251
501.05251
501.05251
501.05251
501.05251
501.05251
501.05251
501.05251
501.05251
501.05251
501.05251
501.05251
501.05251
501.05251
501.05251
501.05251
501.05251
501.05251
477.57874
501.05251
501.05251
501.05251
501.05251
501.05251
186.80649
501.05251
501.05251
186.80649
501.05251
210.36353
501.05251
501.05251
501.05251
501.05251
501.05251
501.05251
501.05251
501.05251
501.05251
501.05251
501.05251
501.05251
501.05251
501.05251
87.179411
87.179411
87.179411
87.179411
87.179411
87.179411
87.179411
87.179411
87.179411
87.179411
87.179411
87.179411
87.179411
87.179411
87.179411
87.179411
87.179411
87.179411
87.179411
87.179411
87.179411
87.179411
87.179411
87.179411
87.179411
87.179411
87.179411
87.179411
87.179411
87.179411
87.179411
87.179411
87.179411
87.179411
87.179411
87.179411
87.179411
87.179411
87.179411
87.179411
87.179411
87.179411
87.179411
87.179411
87.179411
87.179411
87.179411
87.179411
87.179411
87.179411
87.179411
87.179411
87.179411
87.179411
87.179411
87.179411
87.179411
87.179411
87.179411
87.179411
87.179411
87.179411
87.179411
87.179411
87.179411
87.179411
87.179411
87.179411
87.179411
87.179411
87.179411
87.179411
87.179411
87.179411
87.179411
87.179411
87.179411
87.179411
87.179411
87.179411
87.179411
87.179411
87.179411
87.179411
87.179411
87.179411
87.179411
87.179411
87.179411
87.179411
87.179411
87.179411
87.179411
87.179411
87.179411
87.179411
87.179411
87.179411
87.179411
87.179411
87.179411
87.179411
87.179411
87.179411
87.179411
87.179411
87.179411
87.179411
87.179411
87.179411
87.179411
87.179411
87.179411
87.179411
87.179411
87.179411
87.179411
87.179411
87.179411
87.179411
87.179411
87.179411
87.179411
87.179411
87.179411
87.179411
87.179411
87.179411
87.179411
87.179411
87.179411
87.179411
87.179411
87.179411
87.179411
87.179411
87.179411
87.179411
87.179411
87.179411
87.179411
87.179411
87.179411
87.179411
87.179411
87.179411
87.179411
87.179411
87.179411
87.179411
87.179411
87.179411
87.179411
87.179411
87.179411
87.179411
87.179411
87.179411
87.179411
87.179411
87.179411
87.179411
87.179411
87.179411
87.179411
87.179411
87.179411
87.179411
87.179411
87.179411
87.179411
87.179411
87.179411
87.179411
87.179411
87.179411
87.179411
87.179411
87.179411
87.179411
87.179411
87.179411
87.179411
87.179411
87.179411
87.179411
87.179411
87.179411
87.179411
87.179411
87.179411
87.179411
87.179411
87.179411
87.179411
87.179411
87.179411
87.179411
87.179411
87.179411
87.179411
87.179411
87.179411
87.179411
87.179411
87.179411
87.179411
87.179411
87.179411
87.179411
87.179411
87.179411
87.179411
87.179411
87.179411
87.179411
87.179411
87.179411
87.179411
87.179411
87.179411
87.179411
87.179411
156.62862
132.22393
100.13761
0
12.463241
22.763214
168.25702
80.060844
179.6796
87.933386
72.553827
27.928078
0
9.6078425
0
0
252.98261
208.27702
99.51538
133.18394
221.00198
314.4504
237.06536
0
144.29454
0
0
0
0
0
0
0
0
0
0
0
0
0
0
0
384.09387
513.73846
244.95063
254.68201
410.70997
110.70544
327.41882
378.38004
278.78331
149.793
0
0
0
0
0
0
0
0
0
0
151.22847
240.63028
198.609
261.91548
0
0
0
85.45086
6.6758591
0
0
0
7.9819682
0
174.89399
171.19672
400.7507
190.75606
346.03854
144.34897
10.262906
0
0
0
36.476813
107.13415
322.00048
0
0
118.76506
0
258.9873
207.99043
155.13623
222.48355
310.21125
514.00166
207.61514
0
0
37.365204
0
0
0
0
0
10.564881
0
64.10936
139.46984
33.314896
0
43.43741
0
0
0
108.61183
11.66252
0
47.445518
114.43766
306.56441
0
59.15211
263.90603
199.92306
216.3275
374.75233
3.1313227
93.518847
213.12258
254.47531
0
173.9909
391.12815
304.86784
288.07514
0
9.7974375
0
0
0
0
0
0
0
135.44575
400.87652
10.626214
231.77527
245.41628
0
78.015901
155.42265
92.148833
89.872307
193.88046
199.44364
255.86755
386.62062
318.23549
303.15428
396.78272
237.76008
96.225909
130.33783
0.076051748
0
172.12184
0
4.114965
10.656774
68.124701
307.68507
203.17271
0
10.415467
391.53834
0
0
0.6220265
242.70677
217.13207
364.36681
0
126.6994
60.636969
0
0
0
0
308.50531
0
0
0
0
0
0
0
0
0
0
190.58434
165.28704
72.272623
0
0
0
0
0
0
0
0
0
261.58281
108.41514
267.79173
8.7387483
113.65159
168.9648
9.1372349
0
82.602328
253.10925
509.33094
55.890126
49.407403
115.66959
193.38564
127.12145
146.34659
311.30061
217.07786
232.71777
188.77439
291.42119
112.71268
105.30598
196.12866
306.6228
479.62981
0
0
0
0
8.3518972
0
0
0
38.69396
0
0
0
0
130.4619
0
63.483004
256.21943
214.6677
321.08359
113.73364
153.8618
2.2180429
134.22777
0
49.827777
152.48425
114.62464
131.71631
28.052195
0
0.016390088
0
5.251583
0
111.45844
69.778591
78.975941
315.74617
372.99863
513.09485
261.41342
148.53525
0
0
0
0
0
238.25612
93.733496
2.2548793
220.47095
230.78693
323.59474
514.2307
311.93829
285.467
0
153.39848
0
0
0
211.80375
152.3988
230.01287
219.8147
248.88518
56.45776
0
5.410219
0
0
0
0
0
0
0
0
0
0
0
0
0
0
89.706627
137.69369
193.98329
268.45055
269.87039
236.49518
246.36574
77.778975
0
137.26953
193.43215
68.520401
124.22487
5.1027317
0
65.429045
57.09982
56.340833
0
0
0
0
0
0
0
203.14377
187.6825
97.678256
9.9207993
87.020485
1.9778409
7.2846709
0
0
0
0
0
0
0
34.819803
0
5.849508
0
289.54022
504.56507
109.47423
274.65581
476.86748
250.6644
188.86921
53.744194
0
0
0
0
2.7241733
0
22.7011
0
242.28083
317.31032
205.29798
116.55658
196.60788
253.02519
8.2318608
87.108049
116.97386
0
0
17.448778
0
380.14457
133.99674
31.33551
330.48876
473.01421
174.40362
155.38504
0
0
234.09514
0
)


1173
(
284.54856
284.54856
284.54856
284.54856
284.54856
284.54856
284.54856
284.54856
284.54856
284.54856
284.54856
284.54856
284.54856
284.54856
284.54856
284.54856
284.54856
284.54856
0
284.54856
284.54856
284.54856
284.54856
284.54856
284.54856
284.54856
284.54856
284.54856
0
0
0
284.54856
284.54856
284.54856
284.54856
284.54165
284.54856
284.54856
284.54856
284.54856
284.54856
284.54856
284.54856
284.54856
284.54856
284.5481
284.54165
284.54856
284.54856
0
0
284.54856
284.54856
284.54856
284.54856
284.54856
284.54856
284.54856
284.54856
284.54856
284.54856
284.54856
284.54856
284.54856
284.54856
284.54856
284.54856
284.54856
284.54856
284.54856
284.54856
284.54856
284.54856
284.54856
284.54856
284.54856
284.54856
284.54856
284.54856
284.54856
90.429616
90.429616
284.54856
284.54856
284.54856
284.54856
284.54856
284.54856
284.54856
284.54856
284.54856
284.54856
92.954881
92.954881
284.54856
92.954881
284.54856
284.54856
284.54856
284.54856
284.54856
284.54856
284.54856
284.54856
284.54856
284.54856
284.54856
284.54856
284.54856
284.54856
284.54856
284.54856
284.54856
284.54856
284.54856
284.54856
284.54856
284.54856
284.54856
284.54856
284.54856
97.179406
284.54856
284.54856
284.54856
284.54856
284.54856
284.54856
284.54856
127.26325
284.54856
284.54856
284.54856
284.54856
284.54856
284.54856
284.54856
284.54856
284.54856
97.179406
284.54856
284.54856
284.54856
284.54856
284.54856
284.54856
284.54856
284.54856
127.26325
284.54856
284.54856
284.54856
284.54856
284.54856
284.54856
284.54856
284.54856
284.54856
284.54856
284.54856
284.54856
284.54856
284.54856
284.54856
284.54856
93.541943
284.54856
284.54856
102.14861
284.54856
127.26325
102.14861
102.14861
284.54856
284.54856
284.54856
284.54856
284.54856
284.54856
284.54856
284.54856
284.54856
284.54856
284.54856
284.54856
284.54856
284.54856
284.54856
284.54856
284.54856
284.54856
284.54856
284.54856
284.54856
284.54856
284.54856
284.54856
284.54856
284.54856
284.54856
284.54856
284.54856
284.54856
284.54856
213.49655
284.54856
284.54856
284.54856
284.54856
284.54856
284.54856
284.54856
284.54856
284.54856
284.54856
284.54856
284.54856
284.54856
284.54856
284.54856
284.54856
284.54856
284.54856
253.76552
284.54856
284.54856
284.54856
284.54856
284.54856
284.54856
284.54856
284.54856
284.54856
213.49655
284.54856
284.54856
284.54856
284.54856
193.74059
213.49655
262.9185
284.54856
284.54856
284.54856
284.54856
101.63655
284.54856
101.63655
284.54856
284.54856
284.54856
284.54856
284.54856
284.54856
284.54856
284.54856
284.54856
284.54856
284.54856
284.54856
70.320117
284.54856
97.179406
284.54856
284.54856
70.320117
284.54856
284.54856
284.54856
284.54856
284.54856
284.54856
284.54856
284.54856
284.54856
186.68068
186.68068
253.76552
284.54856
284.54856
284.54856
101.63655
98.226272
86.486732
284.54856
284.54856
284.54856
86.486732
284.54856
284.54856
284.54856
284.54856
284.54856
284.54856
284.54856
284.54856
223.61513
186.68068
284.54856
213.49655
272.63946
272.63946
147.6263
284.54856
284.54856
284.54856
284.54856
284.54856
284.54856
93.541943
147.6263
284.54856
147.6263
127.26325
284.54856
284.54856
284.54856
284.54856
284.54856
284.54856
284.54856
186.68068
284.54856
284.54856
284.54856
284.54856
284.54856
284.54856
284.54856
284.54856
284.54856
284.54856
284.54856
284.54856
284.54856
284.54856
284.54856
284.54856
284.54856
284.54856
284.54856
238.45214
284.54856
284.54856
284.54856
284.54856
284.54856
284.54856
284.54856
284.54856
284.54856
284.54856
284.54856
284.54856
284.54856
284.54856
284.54856
284.54856
284.54856
238.45214
238.45214
284.54856
284.54856
284.54856
284.54856
284.54856
284.54856
284.54856
284.54856
284.54856
284.54856
284.54856
284.54856
284.54856
284.54856
284.54856
284.54856
284.54856
284.54856
284.54856
284.54856
280.72882
284.54856
284.54856
284.54856
284.54856
186.68068
186.68068
284.54856
284.54856
284.54856
284.54856
284.54856
284.54856
284.54856
284.54856
284.54856
284.54856
284.54856
284.54856
284.54856
284.54856
284.54856
284.54856
284.54856
101.63655
284.54856
284.54856
284.54856
284.54856
284.54856
284.54856
284.54856
284.54856
284.54856
284.54856
284.54856
284.54856
253.76552
284.54856
284.54856
284.54856
284.54856
284.54856
284.54856
284.54856
284.54856
284.54856
284.54856
284.54856
284.54856
284.54856
284.54856
284.54856
284.54856
284.54856
284.54856
284.54856
284.54856
284.54856
284.54856
284.54856
284.54856
284.54856
284.54856
284.54856
284.54856
284.54856
284.54856
284.54856
284.54856
284.54856
284.54856
284.54856
284.54856
284.54856
284.54856
284.54856
284.54856
284.54856
284.54856
284.54856
284.54856
284.54856
284.54856
284.54856
284.54856
284.54856
284.54856
284.54856
284.54856
284.54856
284.54856
284.54856
284.54856
284.54856
284.54856
284.54856
284.54856
284.54856
284.54856
284.54856
284.54856
284.54856
284.54856
284.54856
284.54856
284.54856
284.54856
284.54856
284.54856
284.54856
284.54856
284.54856
284.54856
284.54856
284.54856
284.54856
284.54856
284.54856
284.54856
284.54856
284.54856
284.54856
284.54856
284.54856
284.54856
284.54856
284.54856
284.54856
284.54856
284.54856
284.54856
284.54856
284.54856
284.54856
284.54856
284.54856
284.54856
284.54856
284.54856
284.54856
284.54856
90.429616
284.54856
284.54856
90.429616
223.06402
92.954881
284.54856
284.54856
284.54856
284.54856
284.54856
251.41285
284.54856
284.54856
284.54856
284.54856
284.54856
284.54856
284.54856
284.54856
50.690264
50.690264
50.690264
50.690264
50.690264
50.690264
50.690264
50.690264
50.690264
50.690264
50.690264
50.690264
50.690264
50.690264
50.690264
50.690264
50.690264
50.690264
50.690264
50.690264
50.690264
50.690264
50.690264
50.690264
50.690264
50.690264
50.690264
50.690264
50.690264
50.690264
50.690264
50.690264
50.690264
50.690264
50.690264
50.690264
50.690264
50.690264
50.690264
50.690264
50.690264
50.690264
50.690264
50.690264
50.690264
50.690264
50.690264
50.690264
50.690264
50.690264
50.690264
50.690264
50.690264
50.690264
50.690264
50.690264
50.690264
50.690264
50.690264
50.690264
50.690264
50.690264
50.690264
50.690264
50.690264
50.690264
50.690264
50.690264
50.690264
50.690264
50.690264
50.690264
50.690264
50.690264
50.690264
50.690264
50.690264
50.690264
50.690264
50.690264
50.690264
50.690264
50.690264
50.690264
50.690264
50.690264
50.690264
50.690264
50.690264
50.690264
50.690264
50.690264
50.690264
50.690264
50.690264
50.690264
50.690264
50.690264
50.690264
50.690264
50.690264
50.690264
50.690264
50.690264
50.690264
50.690264
50.690264
50.690264
50.690264
50.690264
50.690264
50.690264
50.690264
50.690264
50.690264
50.690264
50.690264
50.690264
50.690264
50.690264
50.690264
50.690264
50.690264
50.690264
50.690264
50.690264
50.690264
50.690264
50.690264
50.690264
50.690264
50.690264
50.690264
50.690264
50.690264
50.690264
50.690264
50.690264
50.690264
50.690264
50.690264
50.690264
50.690264
50.690264
50.690264
50.690264
50.690264
50.690264
50.690264
50.690264
50.690264
50.690264
50.690264
50.690264
50.690264
50.690264
50.690264
50.690264
50.690264
50.690264
50.690264
50.690264
50.690264
50.690264
50.690264
50.690264
50.690264
50.690264
50.690264
50.690264
50.690264
50.690264
50.690264
50.690264
50.690264
50.690264
50.690264
50.690264
50.690264
50.690264
50.690264
50.690264
50.690264
50.690264
50.690264
50.690264
50.690264
50.690264
50.690264
50.690264
50.690264
50.690264
50.690264
50.690264
50.690264
50.690264
50.690264
50.690264
50.690264
50.690264
50.690264
50.690264
50.690264
50.690264
50.690264
50.690264
50.690264
50.690264
50.690264
50.690264
50.690264
50.690264
50.690264
50.690264
50.690264
50.690264
50.690264
50.690264
50.690264
50.690264
50.690264
50.690264
50.690264
151.31708
8.2541314
0
42.393968
0
72.746333
157.06373
100.2058
87.861639
78.898287
0
0
0
0
0
30.142456
78.34014
64.973075
0
18.346226
58.714904
162.23685
87.941049
0
137.2682
0
0
0
0
0
0
0
0
56.081103
0
0
0
63.252294
61.179169
20.2379
164.2732
277.07858
170.34411
181.36737
264.7767
82.370172
141.93589
200.94185
149.18274
42.33669
0
0
0
0
0
0
0
0
0
0
70.060321
122.48771
136.31342
182.01121
0
0
0
108.96742
51.229245
0
0
53.368355
4.7122722
3.1349878
141.27446
156.13836
252.17771
158.63108
183.29086
35.704792
11.001732
0
0
63.682342
82.956029
124.64645
229.91667
0
0
83.439859
48.327053
176.60152
137.66994
77.78945
114.80599
164.68061
277.54013
76.220425
0
0
17.023855
0
0
0
0
0
0
22.036756
0
36.966263
70.559643
0
0
6.2398467
0
30.008413
0
4.3277645
0
0
102.29737
220.11782
0
9.3786266
141.04646
58.797092
114.5104
158.44155
56.905584
0
84.618078
175.50105
56.703624
141.15828
176.72776
134.98441
155.634
0
21.065767
0
0
0
0
0
0
34.815987
8.8427322
176.06804
0
72.103526
106.74847
0
0
97.62774
0
0.066391783
44.177422
59.788618
80.825984
166.87203
124.43917
138.3996
182.43081
68.9272
1.8327853
17.30014
34.161482
0
91.794799
0
4.5283284
0
95.397713
223.56769
153.87262
33.40493
66.113313
169.46352
0
0
61.499078
175.84572
73.185709
204.49621
0
15.502014
0
59.120336
3.3367547
34.048403
0
173.17902
0
0
0
0
0
0
0
0
0
0
140.98217
93.603676
76.285398
0
0
0
0
0
0
0
0
0
147.82203
105.67671
150.9407
26.045788
10.699385
68.242945
40.74942
0
111.88052
79.131094
281.30127
97.897222
95.570022
0.95822535
43.847436
14.387636
77.405617
170.56661
115.97501
71.453813
161.35545
207.71784
126.57278
81.147565
136.02646
115.97802
259.34857
0
0
0
0
54.885343
0
0
0
25.605209
0
0
0
0
137.98123
66.468727
103.12344
80.36831
70.113834
141.08707
8.388962
48.577732
0
8.1719554
0
0
51.04575
9.2768096
18.507472
0
0
0
0
0
0
0
7.9202698
77.048723
170.07936
203.67344
274.97333
83.611114
79.610789
0
0
0
0
0
69.234168
2.5134607
0
71.432437
102.09204
144.69336
282.47269
173.9987
213.51081
0
81.468123
0
0
0
118.7774
78.713208
99.180172
70.11667
131.97634
0
0
0
33.423274
0
0
0
0
0
0
0
0
0
0
0
0
0
78.651237
132.0072
139.74658
146.91401
151.52752
174.87191
134.01974
75.862144
59.294617
133.08714
151.72626
96.787448
134.77971
64.206584
48.209682
104.14447
30.116147
4.676875
0
0
0
0
0
0
0
149.03627
100.15649
118.25374
58.627124
71.415154
63.580205
6.2641023
0
10.183272
19.546042
0
0
0
0
62.779755
9.8828342
71.086897
55.276374
213.26516
285.47949
126.7984
200.29077
263.57939
180.72239
162.16406
0
0
0
0
0
26.463165
0
1.5106139
0
80.420931
126.2636
105.0053
95.733293
95.695015
181.33508
0
1.6508369
2.8402138
0
0
0
0
163.98375
12.077111
0
132.5103
257.79022
36.402166
0
0
0
68.114776
0
)


1173
(
247.54772
247.54772
247.54772
247.54772
247.54772
247.54772
247.54772
247.54772
247.54772
247.54772
247.54772
247.54772
247.54772
247.54772
247.54772
247.54772
247.54772
247.54772
247.54772
0
247.54772
247.54772
247.54772
247.54772
247.54772
247.54772
247.54772
247.54772
0
0
247.54772
247.54772
247.54772
247.54772
247.54772
0
0
247.54772
247.54772
247.54772
247.54772
247.54772
247.54772
247.54772
247.54772
247.54772
0
247.54772
0
0
0
247.54772
247.54772
247.54772
0
247.54772
247.54772
247.54772
247.54772
247.54772
247.54772
247.54772
247.54772
247.54772
247.54772
247.54772
247.54772
247.54772
247.54772
247.54772
247.54772
247.54772
247.54772
247.54772
247.54772
247.54772
247.54772
247.54772
247.54772
247.54772
247.54772
112.89735
247.54772
247.54772
247.54772
247.54772
247.54772
247.54772
247.54772
247.54772
247.54772
247.54772
91.780286
247.54772
133.20055
91.780286
247.54772
247.54772
247.54772
247.54772
247.54772
247.54772
247.54772
247.54772
247.54772
247.54772
247.54772
247.54772
247.54772
247.54772
247.54772
247.54772
247.54772
247.54772
247.54772
247.54772
247.54772
247.54772
247.54772
247.54772
247.54772
90.540156
247.54772
247.54772
247.54772
247.54772
247.54772
247.54772
247.54772
112.44384
247.54772
247.54772
247.54772
247.54772
247.54772
247.54772
247.54772
247.54772
247.54772
90.540156
247.54772
247.54772
247.54772
247.54772
247.54772
247.54772
247.54772
247.54772
112.44384
247.54772
247.54772
247.54772
135.27467
247.54772
247.54772
247.54772
247.54772
247.54772
247.54772
247.54772
247.54772
247.54772
247.54772
247.54772
247.54772
247.54772
247.54772
112.5138
112.5138
247.54772
112.44384
112.5138
112.5138
247.54772
247.54772
247.54772
247.54772
247.54772
247.54772
247.54772
247.54772
247.54772
247.54772
247.54772
247.54772
247.54772
247.54772
247.54772
247.54772
247.54772
247.54772
247.54772
247.54772
247.54772
247.54772
247.54772
247.54772
247.54772
247.54772
247.54772
247.54772
247.54772
247.54772
247.54772
208.25622
247.54772
247.54772
247.54772
247.54772
247.54772
247.54772
247.54772
228.31725
247.54772
247.54772
247.54772
247.54772
226.04207
247.54772
247.54772
247.54772
247.54772
247.54772
206.05063
247.54772
247.54772
247.54772
247.54772
247.54772
247.54772
247.54772
247.54772
247.54772
208.25622
247.54772
247.54772
247.54772
166.04944
166.04944
208.25622
247.54772
247.54772
247.54772
247.54772
247.54772
98.575692
247.54772
98.575692
247.54772
247.54772
247.54772
247.54772
247.54772
247.54772
247.54772
247.54772
247.54772
247.54772
247.54772
247.54772
104.71884
104.71884
90.540156
247.54772
104.71884
104.71884
247.54772
206.05063
247.54772
247.54772
247.54772
247.54772
247.54772
247.54772
247.54772
172.83397
172.83397
206.05063
247.54772
247.54772
247.54772
247.54772
247.54772
113.54101
247.54772
247.54772
247.54772
113.54101
247.54772
247.54772
247.54772
247.54772
247.54772
247.54772
247.54772
247.54772
247.54772
247.54772
247.54772
208.25622
247.54772
247.54772
247.54772
247.54772
247.54772
90.540156
247.54772
247.54772
247.54772
247.54772
247.54772
247.54772
247.54772
112.44384
247.54772
247.54772
247.54772
247.54772
247.54772
247.54772
247.54772
247.54772
247.54772
247.54772
247.54772
247.54772
247.54772
247.54772
247.54772
247.54772
247.54772
247.54772
135.27467
157.07169
166.87873
247.54772
247.54772
135.27467
247.54772
247.54772
247.54772
229.12815
180.13536
247.54772
247.54772
247.54772
247.54772
247.54772
247.54772
247.54772
247.54772
247.54772
247.54772
247.54772
247.54772
247.54772
247.54772
247.54772
247.54772
247.54772
229.12815
247.54772
247.54772
247.54772
247.54772
166.04944
166.04944
247.54772
247.54772
247.54772
247.54772
247.54772
247.54772
247.54772
247.54772
247.54772
199.12753
247.54772
247.54772
241.9995
241.9995
226.04207
247.54772
247.54772
247.54772
247.54772
172.83397
172.83397
247.54772
247.54772
247.54772
247.54772
247.54772
247.54772
247.54772
247.54772
247.54772
247.54772
247.54772
247.54772
247.54772
247.54772
247.54772
247.54772
247.54772
247.54772
247.54772
247.54772
247.54772
247.54772
247.54772
247.54772
247.54772
247.54772
247.54772
247.54772
247.54772
247.54772
247.54772
247.54772
247.54772
247.54772
247.54772
247.54772
247.54772
247.54772
247.54772
247.54772
247.54772
247.54772
247.54772
247.54772
247.54772
247.54772
247.54772
247.54772
247.54772
247.54772
247.54772
247.54772
247.54772
247.54772
247.54772
247.54772
247.54772
247.54772
247.54772
247.54772
247.54772
247.54772
247.54772
247.54772
247.54772
247.54772
247.54772
247.54772
247.54772
247.54772
247.54772
247.54772
247.54772
247.54772
247.54772
247.54772
247.54772
247.54772
247.54772
247.54772
247.54772
247.54772
247.54772
247.54772
247.54772
247.54772
247.54772
247.54772
247.54772
247.54772
247.54772
247.54772
247.54772
247.54772
247.54772
247.54772
247.54772
247.54772
247.54772
247.54772
247.54772
247.54772
247.54772
247.54772
247.54772
247.54772
247.54772
247.54772
247.54772
247.54772
247.54772
247.54772
247.54772
247.54772
247.54772
247.54772
247.54772
247.54772
247.54772
247.54772
247.54772
160.73933
247.54772
247.54772
247.54772
247.54772
247.54772
247.54772
247.54772
247.54772
247.54772
247.54772
160.73933
247.54772
247.54772
247.54772
247.54772
247.54772
112.89735
160.73933
91.780286
133.20055
247.54772
247.54772
160.73933
247.54772
247.54772
247.54772
247.54772
247.54772
247.54772
247.54772
247.54772
247.54772
247.54772
38.501412
38.501412
38.501412
38.501412
38.501412
38.501412
38.501412
38.501412
38.501412
38.501412
38.501412
38.501412
38.501412
38.501412
38.501412
38.501412
38.501412
38.501412
38.501412
38.501412
38.501412
38.501412
38.501412
38.501412
38.501412
38.501412
38.501412
38.501412
38.501412
38.501412
38.501412
38.501412
38.501412
38.501412
38.501412
38.501412
38.501412
38.501412
38.501412
38.501412
38.501412
38.501412
38.501412
38.501412
38.501412
38.501412
38.501412
38.501412
38.501412
38.501412
38.501412
38.501412
38.501412
38.501412
38.501412
38.501412
38.501412
38.501412
38.501412
38.501412
38.501412
38.501412
38.501412
38.501412
38.501412
38.501412
38.501412
38.501412
38.501412
38.501412
38.501412
38.501412
38.501412
38.501412
38.501412
38.501412
38.501412
38.501412
38.501412
38.501412
38.501412
38.501412
38.501412
38.501412
38.501412
38.501412
38.501412
38.501412
38.501412
38.501412
38.501412
38.501412
38.501412
38.501412
38.501412
38.501412
38.501412
38.501412
38.501412
38.501412
38.501412
38.501412
38.501412
38.501412
38.501412
38.501412
38.501412
38.501412
38.501412
38.501412
38.501412
38.501412
38.501412
38.501412
38.501412
38.501412
38.501412
38.501412
38.501412
38.501412
38.501412
38.501412
38.501412
38.501412
38.501412
38.501412
38.501412
38.501412
38.501412
38.501412
38.501412
38.501412
38.501412
38.501412
38.501412
38.501412
38.501412
38.501412
38.501412
38.501412
38.501412
38.501412
38.501412
38.501412
38.501412
38.501412
38.501412
38.501412
38.501412
38.501412
38.501412
38.501412
38.501412
38.501412
38.501412
38.501412
38.501412
38.501412
38.501412
38.501412
38.501412
38.501412
38.501412
38.501412
38.501412
38.501412
38.501412
38.501412
38.501412
38.501412
38.501412
38.501412
38.501412
38.501412
38.501412
38.501412
38.501412
38.501412
38.501412
38.501412
38.501412
38.501412
38.501412
38.501412
38.501412
38.501412
38.501412
38.501412
38.501412
38.501412
38.501412
38.501412
38.501412
38.501412
38.501412
38.501412
38.501412
38.501412
38.501412
38.501412
38.501412
38.501412
38.501412
38.501412
38.501412
38.501412
38.501412
38.501412
38.501412
38.501412
38.501412
38.501412
38.501412
38.501412
38.501412
38.501412
38.501412
38.501412
38.501412
38.501412
38.501412
38.501412
38.501412
186.88349
0
0
87.101848
0
119.85852
191.59309
139.53974
69.419032
100.07754
0
0
0
0
6.2397934
60.433324
9.2579207
12.186845
0
0
0
130.92946
29.983667
36.736346
165.56443
0
0
0
0
0
0
0
0
110.83073
20.790099
0
0
116.83801
114.42201
68.115934
93.61776
227.03187
180.16607
185.97518
258.63069
82.778333
79.784093
157.08243
115.47917
0
0
0
0
0
0
0
0
0
0
0
40.315593
87.621343
133.71332
183.20504
0
0
61.738139
151.21932
91.69038
0
0
92.292149
7.5260866
48.500809
155.61683
186.39739
237.78343
179.29594
142.02836
10.966197
17.964251
0
0
117.48964
130.32834
163.92986
241.36528
0
0
80.48076
103.37081
174.84271
131.21902
51.890005
83.179407
127.08175
227.22349
23.747917
0
0
47.824308
0
76.467176
0
0
54.077349
0
74.235293
0
0
103.21497
0
0
34.167513
6.1766819
58.809901
0
8.2377523
17.093737
0
127.23377
233.62056
0
28.76467
119.83729
5.4332456
97.609984
89.178788
101.69515
0
35.449994
175.25756
108.15407
155.90232
109.90765
78.308565