/*--------------------------------*- C++ -*----------------------------------*\
  =========                 |
  \\      /  F ield         | OpenFOAM: The Open Source CFD Toolbox
   \\    /   O peration     | Website:  https://openfoam.org
    \\  /    A nd           | Version:  8
     \\/     M anipulation  |
\*---------------------------------------------------------------------------*/
/*   Windows 32 and 64 bit porting by blueCAPE: http://www.bluecape.com.pt   *\
|  Based on Windows porting (2.0.x v4) by Symscape: http://www.symscape.com   |
\*---------------------------------------------------------------------------*/
FoamFile
{
    version     2.0;
    format      ascii;
    class       scalarListList;
    location    "constant/vegetation";
    object      sunViewCoeff;
}
// * * * * * * * * * * * * * * * * * * * * * * * * * * * * * * * * * * * * * //


5
(

421
(
501.05251
501.05251
501.05251
501.05251
501.05251
501.05251
501.05251
501.05251
501.05251
201.60852
500.87013
418.31551
501.05251
501.05251
501.05251
0
501.05251
501.05251
500.95644
501.05251
501.05251
501.05251
501.05251
501.05251
317.15758
186.80649
501.05251
501.05251
421.29279
282.93868
501.05251
501.05251
501.05251
468.21862
417.14482
501.05251
501.05251
501.05251
319.37483
501.05251
380.75402
501.05251
501.05251
478.9226
501.05251
501.05251
501.05251
501.05251
501.05251
501.05251
501.05251
501.05251
365.45107
378.03421
501.05251
456.83036
501.05251
501.05251
501.05251
501.05251
501.05251
501.05251
501.05251
501.05251
501.05251
501.05251
501.05251
501.05251
370.06889
501.05251
501.05251
495.67813
501.05251
501.05251
501.05251
501.05251
501.05251
451.21914
497.35564
437.51391
501.05251
490.27805
501.05251
501.05251
501.05251
501.05251
127.55029
501.05251
501.05251
501.05251
303.75522
501.05251
335.59986
417.85662
475.07302
438.46383
407.58693
501.05251
501.05251
501.05251
501.05251
501.05251
501.05251
501.05251
501.05251
501.05251
501.05251
501.05251
501.05251
501.05251
501.05251
499.23749
501.05251
501.05251
87.179411
87.179411
87.179411
87.179411
87.179411
87.179411
87.179411
87.179411
87.179411
87.179411
87.179411
87.179411
87.179411
87.179411
87.179411
87.179411
87.179411
87.179411
87.179411
87.179411
87.179411
87.179411
87.179411
87.179411
87.179411
87.179411
87.179411
87.179411
87.179411
87.179411
87.179411
87.179411
87.179411
87.179411
87.179411
87.179411
87.179411
87.179411
87.179411
87.179411
87.179411
87.179411
87.179411
87.179411
87.179411
87.179411
87.179411
87.179411
87.179411
87.179411
87.179411
87.179411
87.179411
87.179411
87.179411
87.179411
87.179411
87.179411
87.179411
87.179411
87.179411
87.179411
87.179411
87.179411
87.179411
87.179411
87.179411
87.179411
87.179411
87.179411
87.179411
87.179411
87.179411
87.179411
87.179411
87.179411
87.179411
87.179411
87.179411
87.179411
87.179411
87.179411
87.179411
87.179411
87.179411
87.179411
87.179411
87.179411
87.179411
87.179411
87.179411
87.179411
87.179411
87.179411
87.179411
87.179411
87.179411
87.179411
87.179411
87.179411
87.179411
87.179411
87.179411
87.179411
87.179411
87.179411
87.179411
87.179411
87.179411
87.179411
87.179411
87.179411
87.179411
87.179411
87.179411
87.179411
87.179411
87.179411
87.179411
87.179411
87.179411
87.179411
87.179411
87.179411
87.179411
87.179411
87.179411
87.179411
87.179411
87.179411
87.179411
87.179411
87.179411
87.179411
87.179411
87.179411
87.179411
87.179411
87.179411
87.179411
87.179411
87.179411
87.179411
87.179411
87.179411
87.179411
87.179411
87.179411
87.179411
87.179411
87.179411
87.179411
87.179411
87.179411
87.179411
87.179411
87.179411
87.179411
87.179411
87.179411
87.179411
87.179411
87.179411
87.179411
87.179411
87.179411
87.179411
87.179411
87.179411
87.179411
87.179411
87.179411
87.179411
87.179411
87.179411
87.179411
87.179411
87.179411
87.179411
87.179411
87.179411
87.179411
87.179411
87.179411
87.179411
87.179411
87.179411
87.179411
87.179411
87.179411
87.179411
87.179411
87.179411
87.179411
87.179411
87.179411
87.179411
87.179411
87.179411
87.179411
87.179411
87.179411
87.179411
87.179411
87.179411
87.179411
87.179411
87.179411
87.179411
87.179411
87.179411
87.179411
87.179411
87.179411
87.179411
87.179411
87.179411
87.179411
87.179411
87.179411
87.179411
87.179411
87.179411
231.14877
49.994159
8.6239716
10.022773
393.40602
110.97108
343.31065
0
0
0
4.1574543
556.95962
0
0
216.21515
96.909624
0
0
0
104.93951
390.7199
190.10526
0
449.8785
17.814978
8.9221714
16.250841
9.3784698
17.165435
282.23204
419.69748
0
153.39514
337.66649
72.726632
136.61258
276.66387
105.72456
0
0
181.27488
429.48529
33.609346
255.87291
325.29778
0
7.7618807
32.128407
466.71733
33.829615
16.856862
303.54324
67.997188
385.30849
0
95.076178
288.05823
282.69437
42.491113
164.35391
30.713006
20.368906
0
0
0
0
0
145.76668
0
0
0
33.269404
241.44
55.017856
93.976737
256.22113
0
32.03432
92.192132
26.891328
30.149792
9.7171312
222.56845
31.333571
)


421
(
284.54856
284.54856
284.54856
284.54856
284.54856
284.54856
284.54856
284.54856
284.54856
228.27647
284.54845
190.48239
284.54856
284.54856
284.54856
71.205213
284.54856
284.54856
284.5451
284.54856
284.54856
284.54856
284.54856
284.54856
284.54856
90.429616
284.54856
284.54856
284.54856
92.954881
284.54856
284.54856
284.54856
284.54856
143.30007
284.54856
284.54856
284.54856
284.54856
284.54856
127.26325
284.54856
284.54856
284.54856
284.54856
284.54856
284.54856
284.54856
284.54856
284.54856
284.54856
284.54856
188.5334
145.63279
284.54856
271.46093
284.54856
284.54856
284.54856
284.54856
284.54856
284.54856
284.54856
284.54856
284.54856
284.54856
284.54856
284.54856
213.49655
284.54856
284.54856
280.92317
284.54856
284.54856
284.54856
283.59813
284.54856
272.27364
261.49147
218.67561
284.54856
284.54856
284.54856
261.59344
284.54856
284.54856
101.63655
284.54856
284.54856
284.54856
253.80973
284.54856
185.03838
177.96028
284.54856
278.57891
199.79261
284.54856
284.54856
284.54856
284.54856
284.54856
284.54856
284.54856
284.54856
284.54856
284.54856
284.54856
284.54856
284.54856
277.79149
281.97781
284.54856
284.54856
50.690264
50.690264
50.690264
50.690264
50.690264
50.690264
50.690264
50.690264
50.690264
50.690264
50.690264
50.690264
50.690264
50.690264
50.690264
50.690264
50.690264
50.690264
50.690264
50.690264
50.690264
50.690264
50.690264
50.690264
50.690264
50.690264
50.690264
50.690264
50.690264
50.690264
50.690264
50.690264
50.690264
50.690264
50.690264
50.690264
50.690264
50.690264
50.690264
50.690264
50.690264
50.690264
50.690264
50.690264
50.690264
50.690264
50.690264
50.690264
50.690264
50.690264
50.690264
50.690264
50.690264
50.690264
50.690264
50.690264
50.690264
50.690264
50.690264
50.690264
50.690264
50.690264
50.690264
50.690264
50.690264
50.690264
50.690264
50.690264
50.690264
50.690264
50.690264
50.690264
50.690264
50.690264
50.690264
50.690264
50.690264
50.690264
50.690264
50.690264
50.690264
50.690264
50.690264
50.690264
50.690264
50.690264
50.690264
50.690264
50.690264
50.690264
50.690264
50.690264
50.690264
50.690264
50.690264
50.690264
50.690264
50.690264
50.690264
50.690264
50.690264
50.690264
50.690264
50.690264
50.690264
50.690264
50.690264
50.690264
50.690264
50.690264
50.690264
50.690264
50.690264
50.690264
50.690264
50.690264
50.690264
50.690264
50.690264
50.690264
50.690264
50.690264
50.690264
50.690264
50.690264
50.690264
50.690264
50.690264
50.690264
50.690264
50.690264
50.690264
50.690264
50.690264
50.690264
50.690264
50.690264
50.690264
50.690264
50.690264
50.690264
50.690264
50.690264
50.690264
50.690264
50.690264
50.690264
50.690264
50.690264
50.690264
50.690264
50.690264
50.690264
50.690264
50.690264
50.690264
50.690264
50.690264
50.690264
50.690264
50.690264
50.690264
50.690264
50.690264
50.690264
50.690264
50.690264
50.690264
50.690264
50.690264
50.690264
50.690264
50.690264
50.690264
50.690264
50.690264
50.690264
50.690264
50.690264
50.690264
50.690264
50.690264
50.690264
50.690264
50.690264
50.690264
50.690264
50.690264
50.690264
50.690264
50.690264
50.690264
50.690264
50.690264
50.690264
50.690264
50.690264
50.690264
50.690264
50.690264
50.690264
50.690264
50.690264
50.690264
50.690264
50.690264
50.690264
50.690264
50.690264
50.690264
50.690264
50.690264
50.690264
50.690264
50.690264
50.690264
50.690264
50.690264
50.690264
50.690264
50.690264
50.690264
50.690264
192.79131
11.889905
14.000461
22.599442
205.79217
12.59807
148.36307
0
0
0
10.040184
283.09252
0
0
179.00672
124.43776
0
0
13.622892
65.233118
213.87692
53.520457
0
246.675
0
27.06164
16.384314
43.971152
10.046373
153.13186
270.37032
0
40.116653
129.98013
111.99602
8.8873463
166.44484
46.569083
0
0
34.710671
328.11503
0
78.124971
184.20077
24.990901
15.551606
1.8525181
222.04013
3.7374901
0
108.39992
104.61632
243.20484
0
95.753941
171.46399
171.21925
0
25.097598
0
3.007327
0
0
0
1.0562207
0
121.49692
0
0
0
20.07163
188.44061
2.5229497
58.170012
92.816103
30.941092
85.766904
115.27725
7.128846
15.122279
0
81.704354
24.74164
)


421
(
247.54772
247.54772
247.54772
222.79971
247.54772
247.54772
247.54772
247.54772
247.54772
247.54772
247.54772
41.621769
247.54772
247.54772
247.54772
123.46387
247.54772
247.54772
123.65395
247.54772
247.54772
247.54772
241.39273
247.54772
247.54772
180.09208
247.54772
226.97055
247.54772
130.72157
247.54772
247.54772
247.54772
247.54772
90.540156
247.54772
247.54772
247.54772
247.54772
247.54772
112.44384
247.54772
243.0508
247.54772
247.54772
247.54772
247.54772
247.54772
163.2099
234.72333
247.54772
247.54772
247.54772
112.5138
247.54772
244.00118
247.54772
247.54772
247.54772
247.54772
246.89871
247.54772
247.54772
247.54772
247.54772
247.54772
247.54772
247.54772
208.25622
247.54772
240.72821
244.34487
247.54772
247.54772
247.54772
236.83165
247.54772
247.54772
216.50687
213.70571
247.54772
247.54772
247.54772
166.04944
247.54772
247.54772
173.2714
247.54772
247.54772
247.54772
247.54772
247.54772
180.2201
104.71884
247.54772
247.54772
247.54772
247.54772
247.54772
247.54772
247.54772
247.54772
247.54772
247.54772
247.54772
247.54772
247.54772
247.54772
247.54772
247.54772
209.09475
247.54772
247.54772
247.54772
38.501412
38.501412
38.501412
38.501412
38.501412
38.501412
38.501412
38.501412
38.501412
38.501412
38.501412
38.501412
38.501412
38.501412
38.501412
38.501412
38.501412
38.501412
38.501412
38.501412
38.501412
38.501412
38.501412
38.501412
38.501412
38.501412
38.501412
38.501412
38.501412
38.501412
38.501412
38.501412
38.501412
38.501412
38.501412
38.501412
38.501412
38.501412
38.501412
38.501412
38.501412
38.501412
38.501412
38.501412
38.501412
38.501412
38.501412
38.501412
38.501412
38.501412
38.501412
38.501412
38.501412
38.501412
38.501412
38.501412
38.501412
38.501412
38.501412
38.501412
38.501412
38.501412
38.501412
38.501412
38.501412
38.501412
38.501412
38.501412
38.501412
38.501412
38.501412
38.501412
38.501412
38.501412
38.501412
38.501412
38.501412
38.501412
38.501412
38.501412
38.501412
38.501412
38.501412
38.501412
38.501412
38.501412
38.501412
38.501412
38.501412
38.501412
38.501412
38.501412
38.501412
38.501412
38.501412
38.501412
38.501412
38.501412
38.501412
38.501412
38.501412
38.501412
38.501412
38.501412
38.501412
38.501412
38.501412
38.501412
38.501412
38.501412
38.501412
38.501412
38.501412
38.501412
38.501412
38.501412
38.501412
38.501412
38.501412
38.501412
38.501412
38.501412
38.501412
38.501412
38.501412
38.501412
38.501412
38.501412
38.501412
38.501412
38.501412
38.501412
38.501412
38.501412
38.501412
38.501412
38.501412
38.501412
38.501412
38.501412
38.501412
38.501412
38.501412
38.501412
38.501412
38.501412
38.501412
38.501412
38.501412
38.501412
38.501412
38.501412
38.501412
38.501412
38.501412
38.501412
38.501412
38.501412
38.501412
38.501412
38.501412
38.501412
38.501412
38.501412
38.501412
38.501412
38.501412
38.501412
38.501412
38.501412
38.501412
38.501412
38.501412
38.501412
38.501412
38.501412
38.501412
38.501412
38.501412
38.501412
38.501412
38.501412
38.501412
38.501412
38.501412
38.501412
38.501412
38.501412
38.501412
38.501412
38.501412
38.501412
38.501412
38.501412
38.501412
38.501412
38.501412
38.501412
38.501412
38.501412
38.501412
38.501412
38.501412
38.501412
38.501412
38.501412
38.501412
38.501412
38.501412
38.501412
38.501412
38.501412
38.501412
38.501412
38.501412
38.501412
38.501412
38.501412
38.501412
38.501412
38.501412
38.501412
38.501412
219.83107
0
52.713829
77.234272
168.9264
2.5880988
69.070641
8.5421384
0
0
14.983912
213.12815
0
6.6371183
203.61337
168.15936
0
0
37.865122
52.568231
173.86305
0.93473773
0
210.88248
0
2.3056728
9.1838821
92.616322
4.6968921
134.67173
263.14539
0
10.357975
58.131993
157.58091
16.729696
146.90291
31.318281
0
0
4.9493151
272.20219
0
6.6915811
150.9779
13.442065
0
10.885041
153.78459
24.119683
0
42.018681
150.71369
234.11562
0
114.27756
150.11707
152.53614
0
0
0
28.50861
0
0
0
29.340126
0
144.4411
0
0
0
22.49536
212.27887
11.261848
48.814405
28.842333
12.57952
135.81913
144.97863
27.160898
3.924285
0
37.591061
0
)


421
(
218.93877
218.93877
218.93877
21.793484
218.93877
218.93877
218.93877
218.93877
218.93877
218.93877
218.93877
0
218.93877
218.93877
218.93877
218.93877
218.93877
218.93877
164.16559
218.93877
218.93877
218.93877
181.25123
218.93877
218.93877
218.93877
218.93877
101.14624
218.93877
167.03019
218.93877
218.93877
218.93877
218.93877
117.63563
218.93877
218.93877
218.93877
218.93877
218.93877
158.29324
218.93877
211.2386
218.93877
181.8813
218.93877
218.93877
218.93877
121.60105
188.99218
218.93877
218.93877
218.93877
158.7087
218.93877
218.93877
218.93877
218.93877
218.93877
218.93877
210.96643
218.93877
218.8525
218.93877
218.93877
218.93877
218.93877
218.93877
206.73561
208.37686
180.32156
216.87356
218.93877
218.93877
218.93877
182.3431
201.55435
218.93877
191.45871
211.81086
218.93877
218.93877
218.93877
162.73643
218.93877
218.93877
218.93877
218.93877
218.93877
218.93877
218.93877
218.93877
218.93877
96.293627
218.93877
218.93877
218.93877
218.93877
218.93877
218.93877
218.93877
218.93877
218.93877
218.93877
218.93877
218.93877
218.93877
218.93877
218.93877
218.93877
200.08834
218.93877
218.93877
218.93877
21.856261
21.856261
21.856261
21.856261
21.856261
21.856261
21.856261
21.856261
21.856261
21.856261
21.856261
21.856261
21.856261
21.856261
21.856261
21.856261
21.856261
21.856261
21.856261
21.856261
21.856261
21.856261
21.856261
21.856261
21.856261
21.856261
21.856261
21.856261
21.856261
21.856261
21.856261
21.856261
21.856261
21.856261
21.856261
21.856261
21.856261
21.856261
21.856261
21.856261
21.856261
21.856261
21.856261
21.856261
21.856261
21.856261
21.856261
21.856261
21.856261
21.856261
21.856261
21.856261
21.856261
21.856261
21.856261
21.856261
21.856261
21.856261
21.856261
21.856261
21.856261
21.856261
21.856261
21.856261
21.856261
21.856261
21.856261
21.856261
21.856261
21.856261
21.856261
21.856261
21.856261
21.856261
21.856261
21.856261
21.856261
21.856261
21.856261
21.856261
21.856261
21.856261
21.856261
21.856261
21.856261
21.856261
21.856261
21.856261
21.856261
21.856261
21.856261
21.856261
21.856261
21.856261
21.856261
21.856261
21.856261
21.856261
21.856261
21.856261
21.856261
21.856261
21.856261
21.856261
21.856261
21.856261
21.856261
21.856261
21.856261
21.856261
21.856261
21.856261
21.856261
21.856261
21.856261
21.856261
21.856261
21.856261
21.856261
21.856261
21.856261
21.856261
21.856261
21.856261
21.856261
21.856261
21.856261
21.856261
21.856261
21.856261
21.856261
21.856261
21.856261
21.856261
21.856261
21.856261
21.856261
21.856261
21.856261
21.856261
21.856261
21.856261
21.856261
21.856261
21.856261
21.856261
21.856261
21.856261
21.856261
21.856261
21.856261
21.856261
21.856261
21.856261
21.856261
21.856261
21.856261
21.856261
21.856261
21.856261
21.856261
21.856261
21.856261
21.856261
21.856261
21.856261
21.856261
21.856261
21.856261
21.856261
21.856261
21.856261
21.856261
21.856261
21.856261
21.856261
21.856261
21.856261
21.856261
21.856261
21.856261
21.856261
21.856261
21.856261
21.856261
21.856261
21.856261
21.856261
21.856261
21.856261
21.856261
21.856261
21.856261
21.856261
21.856261
21.856261
21.856261
21.856261
21.856261
21.856261
21.856261
21.856261
21.856261
21.856261
21.856261
21.856261
21.856261
21.856261
21.856261
21.856261
21.856261
21.856261
21.856261
21.856261
21.856261
21.856261
21.856261
21.856261
21.856261
21.856261
21.856261
21.856261
21.856261
243.74076
0
75.516679
124.40915
92.778166
11.065786
6.6880958
4.1155503
0
0
23.760908
151.86516
0
39.750426
223.63545
206.61414
0
0
85.259328
36.385206
136.58097
0
0
185.09825
0
53.658932
13.171474
139.17719
36.54712
124.38504
260.49109
0
4.116173
2.449301
201.20759
0
126.43208
21.313147
0
0
0
161.23574
0
0
120.80253
33.940591
0
18.982399
94.97149
56.049439
0
7.2737858
194.9762
235.40847
0
127.60823
128.19925
132.65577
0
0
0
60.889218
0
0
0
64.016384
0
171.36425
0
0
0
86.016677
239.3581
0
34.039008
12.42094
28.424453
182.142
169.67627
65.254743
1.6402368
0
6.6513349
0
)


421
(
180.4505
180.4505
180.4505
179.98082
180.4505
180.4505
180.4505
180.4505
176.77073
180.4505
180.4505
180.06642
180.4505
90.279383
180.17701
180.4505
180.4505
180.35678
180.4505
180.4505
180.4505
180.4505
141.17197
125.37751
180.4505
180.4505
180.4505
44.790349
180.4505
180.4505
180.4505
180.4505
180.4505
136.24585
154.82586
180.4505
122.67977
180.4505
180.4505
180.4505
180.4505
180.4505
180.4505
157.17467
120.11078
180.4505
180.4505
180.4505
75.239284
47.824291
164.02479
180.4505
180.4505
180.4505
180.4505
180.4505
180.4505
180.4505
180.4505
180.4505
168.28296
180.4505
180.32995
180.4505
180.4505
180.4505
180.4505
180.4505
180.4505
159.5552
180.4505
180.4505
180.4505
180.4505
180.4505
164.17425
153.25114
180.4505
180.4505
180.4505
180.4505
180.4505
180.4505
141.73858
180.4505
180.4505
180.4505
180.4505
180.4505
180.4505
180.4505
180.4505
180.4505
112.69666
180.4505
180.4505
180.4505
180.4505
180.4505
180.4505
180.4505
180.4505
180.4505
180.4505
180.4505
180.4505
180.4505
180.4505
130.87641
180.4505
180.4505
180.4505
180.4505
160.63103
0
0
0
0
0
0
0
0
0
0
0
0
0
0
0
0
0
0
0
0
0
0
0
0
0
0
0
0
0
0
0
0
0
0
0
0
0
0
0
0
0
0
0
0
0
0
0
0
0
0
0
0
0
0
0
0
0
0
0
0
0
0
0
0
0
0
0
0
0
0
0
0
0
0
0
0
0
0
0
0
0
0
0
0
0
0
0
0
0
0
0
0
0
0
0
0
0
0
0
0
0
0
0
0
0
0
0
0
0
0
0
0
0
0
0
0
0
0
0
0
0
0
0
0
0
0
0
0
0
0
0
0
0
0
0
0
0
0
0
0
0
0
0
0
0
0
0
0
0
0
0
0
0
0
0
0
0
0
0
0
0
0
0
0
0
0
0
0
0
0
0
0
0
0
0
0
0
0
0
0
0
0
0
0
0
0
0
0
0
0
0
0
0
0
0
0
0
0
0
0
0
0
0
0
0
0
0
0
0
0
0
0
0
0
0
0
0
0
0
0
0
0
0
222.65737
0
98.522717
157.13528
77.043451
16.381098
16.431538
51.966501
0
0
0
52.087581
15.482421
100.11293
238.08767
243.1136
0
0
118.94608
10.508143
90.076716
0
0
144.54228
0
116.69192
0
167.13992
69.307112
106.85482
249.06437
0
10.184629
0
233.59732
0
94.863175
13.726915
0
0
0
127.95167
0
0
68.055883
83.51883
0
10.236033
24.141055
93.656676
0
3.8528766
226.59208
229.82648
0
122.93091
93.34038
100.85636
0
0
0
91.583807
0
0
0
98.053101
17.33901
192.54878
0
5.4444593
0
145.18284
257.07685
0
12.368551
0
77.458241
216.2372
180.90794
88.98456
23.840556
11.989192
9.288059
0
)

)


// ************************************************************************* //
