/*--------------------------------*- C++ -*----------------------------------*\
  =========                 |
  \\      /  F ield         | OpenFOAM: The Open Source CFD Toolbox
   \\    /   O peration     | Website:  https://openfoam.org
    \\  /    A nd           | Version:  8
     \\/     M anipulation  |
\*---------------------------------------------------------------------------*/
/*   Windows 32 and 64 bit porting by blueCAPE: http://www.bluecape.com.pt   *\
|  Based on Windows porting (2.0.x v4) by Symscape: http://www.symscape.com   |
\*---------------------------------------------------------------------------*/
FoamFile
{
    version     2.0;
    format      ascii;
    class       scalarListList;
    location    "constant/air";
    object      divqrsw;
}
// * * * * * * * * * * * * * * * * * * * * * * * * * * * * * * * * * * * * * //


5
(

5972
(
0
0
0
0
0
0
0
0
0
0
0
0
0
0
0
0
0
0
0
0
0
0
0
0
0
0
0
0
0
0
0
0
0
0
0
0
0
0
0
0
0
0
0
0
0
0
0
0
0
0
0
0
0
0
0
0
0
0
0
0
0
0
0
0
0
0
0
0
0
0
0
0
0
0
0
0
0
0
0
0
0
0
0
0
0
0
0
0
0
0
0
0
0
0
0
0
0
0
0
0
0
0
0
0
0
0
0
0
0
0
0
0
0
0
0
0
0
0
0
0
0
-168.41092
0
-122.16159
0
0
0
0
-170.33052
0
0
0
0
0
0
0
0
0
0
0
0
0
0
0
0
0
0
0
-124.99317
0
0
0
0
0
0
0
0
0
0
0
0
0
0
0
0
0
0
0
0
0
0
0
0
0
0
0
0
0
0
0
0
0
0
0
0
0
0
0
0
0
0
0
0
0
0
0
0
0
0
0
0
0
0
0
0
0
0
0
0
0
0
0
0
0
0
0
0
0
0
0
0
0
0
0
0
0
0
0
-182.13787
0
0
0
0
0
0
-183.4
0
0
-136.08429
0
0
0
0
-136.83703
0
0
0
0
0
0
0
0
0
0
0
0
0
0
0
0
0
0
0
0
0
0
0
0
0
0
0
0
0
0
0
0
0
0
0
0
0
0
0
0
0
0
0
0
0
0
0
0
0
0
0
0
0
0
0
0
0
0
0
0
0
0
0
0
0
0
0
0
0
0
0
0
0
0
0
0
0
0
0
0
0
0
0
0
0
0
0
0
0
0
0
0
0
0
0
0
0
0
0
0
0
0
0
0
0
0
0
0
0
0
0
0
0
0
0
0
0
0
0
0
0
0
0
0
0
0
0
0
0
0
0
0
0
0
0
0
0
0
0
0
0
0
0
0
0
0
0
0
0
0
0
0
0
0
0
0
0
0
0
0
0
0
0
0
0
0
0
0
0
0
0
0
0
0
0
0
0
0
0
0
0
0
0
0
0
0
0
0
0
0
0
0
0
0
0
0
0
0
0
0
0
0
0
0
0
0
0
0
0
0
0
0
0
0
0
0
0
0
0
0
0
0
0
0
0
0
0
-171.72638
0
0
0
0
-125.75673
0
0
0
0
0
0
-130.00252
0
0
0
0
0
0
0
0
0
0
0
0
0
0
0
0
0
0
0
0
0
0
0
0
0
0
0
0
0
0
0
0
0
0
0
0
0
0
0
0
0
0
0
0
0
0
0
0
-187.88333
0
0
0
0
0
-141.89166
-176.65466
0
0
0
0
0
0
0
0
0
0
0
0
0
-189.4887
0
0
0
0
0
0
0
0
0
0
0
0
0
0
0
0
0
0
0
0
0
0
0
0
0
0
0
0
0
0
0
0
0
0
0
0
0
0
0
0
0
0
0
0
0
0
0
0
0
0
0
0
0
0
0
0
0
0
0
-142.82769
0
0
0
0
0
0
0
0
0
0
0
0
0
0
0
0
0
0
0
0
0
0
0
0
0
0
0
0
0
0
0
0
0
0
0
0
0
0
0
0
0
0
0
0
0
0
0
0
0
0
0
0
0
0
0
0
0
0
0
0
0
0
0
0
0
0
0
0
0
0
0
0
0
0
0
0
0
0
0
0
0
0
0
0
0
0
0
0
0
0
0
0
0
0
0
0
0
0
0
0
0
0
0
0
0
0
0
0
0
0
0
0
0
0
0
0
0
0
0
0
0
0
0
0
0
0
0
0
0
0
0
0
0
0
0
0
0
0
0
0
0
0
0
0
0
0
0
0
0
0
0
0
0
0
0
0
0
0
0
0
0
0
0
0
0
0
0
0
0
0
0
0
0
0
0
0
0
0
0
0
0
0
0
0
0
0
0
0
0
0
0
0
0
0
0
0
0
0
-49.955732
0
0
0
0
0
0
0
0
0
0
0
0
0
-54.753645
0
0
-90.986344
-143.00706
-97.330419
-79.106937
-84.40296
0
0
0
0
0
-52.025127
0
0
0
0
-129.40882
-50.860553
-67.820023
-76.003695
0
0
0
-61.32449
0
-60.650069
0
0
0
0
0
0
0
0
0
0
0
0
0
0
0
0
0
0
0
0
0
0
0
0
0
0
-104.21437
0
0
0
0
0
0
0
0
0
0
0
0
0
0
0
0
0
0
0
0
0
0
0
0
0
0
0
0
0
0
0
0
0
0
0
0
0
0
0
0
0
0
0
0
0
0
0
0
0
0
0
0
0
0
0
0
0
0
0
0
0
0
0
0
0
0
0
0
0
0
0
0
0
0
0
0
0
0
0
0
0
0
0
0
0
0
0
0
0
0
0
0
0
0
0
0
0
0
0
0
0
0
0
0
0
0
0
0
0
0
0
0
0
0
0
0
0
0
0
0
0
0
0
0
0
0
0
0
0
0
0
0
0
0
0
0
0
0
0
0
0
0
0
0
0
0
0
0
0
0
0
0
0
0
0
0
0
0
0
0
0
0
0
0
0
0
0
0
0
0
0
0
0
0
0
0
0
0
0
0
0
0
0
0
0
0
0
0
0
0
0
0
0
0
0
0
0
0
0
0
0
0
0
0
0
0
0
0
0
0
0
0
0
0
0
0
0
0
0
0
0
0
0
0
0
0
0
0
0
0
0
0
0
0
0
0
0
0
0
0
0
0
0
0
0
0
0
0
0
0
0
0
0
0
0
0
0
0
0
0
0
0
0
0
0
0
0
0
0
0
0
0
0
0
0
0
0
0
0
0
0
0
0
0
0
0
0
0
0
0
0
0
0
0
0
0
0
0
0
0
0
0
0
0
0
0
0
0
0
-122.04229
0
0
0
0
0
0
0
0
0
0
0
0
0
0
0
0
0
0
0
0
-98.344351
0
0
0
0
0
0
0
0
0
0
0
-63.001606
0
0
0
0
0
0
-65.519571
0
0
0
0
-97.513575
-163.4627
-97.046975
-111.10774
-156.01263
0
-198.35147
0
0
0
-91.94504
-90.381486
-173.42452
0
0
0
0
-108.66906
-125.94175
0
-197.02899
0
-151.86796
-91.481101
-101.57884
-110.59966
-180.95135
0
0
0
0
0
0
0
0
0
0
0
0
0
0
0
0
0
0
0
0
0
0
0
0
0
0
0
0
0
0
0
0
0
0
0
0
-80.717552
0
0
0
0
0
0
0
0
0
0
0
0
0
0
0
0
0
0
0
0
0
0
0
0
0
0
0
0
0
0
0
0
0
0
0
0
0
0
0
0
0
0
0
0
0
0
0
0
0
0
0
0
0
0
0
0
0
0
0
0
0
0
0
0
0
0
0
0
0
0
0
0
0
0
0
0
0
0
0
0
0
0
0
0
0
0
0
0
0
0
0
0
0
0
0
0
0
0
0
0
0
0
0
0
0
0
0
0
0
0
0
0
0
0
0
0
0
0
0
0
0
0
0
0
0
0
0
0
0
0
0
0
0
0
0
0
0
0
0
0
0
0
0
0
0
0
0
0
0
0
0
0
0
0
0
0
0
0
0
0
0
0
0
0
0
0
0
0
0
0
0
0
-80.315968
0
0
0
0
0
0
0
0
0
0
0
0
0
0
0
0
0
0
0
0
0
0
0
0
0
0
0
0
0
0
0
0
0
0
0
0
0
0
0
0
0
-151.07946
0
0
0
0
-84.058851
0
0
0
0
0
0
0
0
0
0
0
0
0
0
0
0
0
0
0
0
0
0
0
0
0
0
0
0
0
0
0
0
0
0
0
0
0
0
0
0
0
0
0
0
0
0
0
0
0
0
0
0
0
0
0
0
0
0
0
0
0
0
0
0
0
0
0
0
0
0
0
0
0
0
0
0
0
0
0
0
0
0
0
0
0
0
0
0
0
0
0
0
0
0
0
0
0
0
0
0
0
0
0
0
0
0
-149.53457
-163.32048
-164.85917
-155.47263
-148.63523
-153.16096
-163.34689
0
0
0
0
0
0
0
-92.144218
-118.47798
-119.37957
-97.121875
-94.700548
-93.990373
-117.04198
0
0
0
0
0
0
0
0
-161.84674
-170.6378
-160.51399
-152.20719
-155.20344
-158.87447
0
0
0
0
0
0
0
0
0
0
0
0
0
0
0
0
0
0
0
0
0
0
0
0
0
0
0
0
0
0
0
0
0
0
0
0
-120.40232
0
-99.619563
0
0
0
0
0
0
0
0
0
0
0
0
0
0
0
0
0
0
0
0
0
0
0
0
0
0
0
0
-121.00984
-168.67113
-174.84948
-159.79477
-135.78686
-162.39305
-145.71249
0
0
0
0
0
0
0
-177.85644
-172.92375
-182.64492
-178.56426
-188.82629
-175.44587
-165.89424
0
0
0
0
0
0
0
0
0
0
0
-74.497347
0
0
-135.49351
-129.73143
-136.87306
-137.82154
-146.66729
-131.35659
-125.07896
0
-131.41092
0
-119.30785
0
0
-108.38485
0
0
0
0
0
0
0
0
0
0
0
0
0
0
0
0
0
0
0
0
0
0
0
0
0
0
0
0
0
0
0
0
0
0
0
0
0
0
0
0
0
0
0
0
0
0
0
0
0
0
0
0
0
0
0
0
0
0
0
0
0
0
0
0
0
0
0
0
0
0
0
0
0
0
0
0
0
0
0
0
0
0
0
0
0
0
0
0
0
0
-137.96746
-107.1873
-82.840995
-101.75971
-171.82545
-142.80519
-121.13361
-95.164456
0
-49.34307
-123.14273
0
-62.185768
-139.43412
-95.097168
0
0
0
0
-99.263777
0
-37.153832
0
-56.809988
-73.826977
0
-43.927099
0
-110.29296
-166.36755
-53.762333
0
0
-151.01815
-121.46492
-129.11236
-54.780566
-71.984405
-88.496602
-127.53707
-61.102353
-117.2771
-75.752199
0
-65.402486
-86.401796
0
-97.176933
0
0
0
0
0
0
0
0
0
0
0
0
0
0
0
0
0
0
0
0
0
0
0
0
0
0
0
0
0
-120.93293
0
0
0
0
0
0
0
0
0
0
0
0
0
-54.793277
0
0
-128.12223
-58.312181
0
0
0
0
-180.27244
-162.79665
-193.28583
-192.74771
-187.25597
-180.07357
-158.59179
-169.16283
0
-60.491813
-127.97407
-155.6608
-104.93758
0
-167.32429
0
0
0
-110.17828
0
0
0
-96.207853
-175.86974
-164.73092
0
0
-96.581328
0
-128.10533
-195.05614
-180.98339
0
-123.60625
0
-187.9674
-178.70503
-64.080954
0
-165.00084
-140.28463
0
-159.03574
-122.34101
-183.05613
-179.2714
-139.56459
-159.88757
-124.34427
0
-116.58283
0
0
-174.98461
-127.61704
0
0
0
0
0
-91.527625
0
0
0
0
0
0
0
0
0
0
0
0
0
0
0
0
0
0
0
0
0
0
0
0
-164.27026
0
0
-123.20146
0
0
-76.239023
0
0
0
0
-92.840587
0
0
-129.63042
0
0
-182.3723
-130.24295
0
0
0
0
0
0
0
0
0
0
0
0
-87.268801
0
0
0
0
0
0
0
0
0
0
0
0
0
0
0
0
0
-102.06364
0
0
0
-99.979411
0
0
-166.183
0
0
-111.73491
0
0
0
0
0
0
0
0
0
0
0
0
0
0
0
0
0
0
0
0
0
0
0
0
0
0
0
0
0
0
0
0
0
0
0
0
0
0
0
0
0
0
0
0
0
0
0
0
0
0
0
-119.57274
0
-75.184653
0
0
0
0
0
0
0
0
0
0
0
-89.94256
0
0
-134.82085
0
-91.305797
0
0
0
0
0
0
0
0
0
0
0
0
0
0
0
0
0
0
0
0
0
0
0
0
0
0
0
0
0
0
0
0
0
0
0
0
0
0
0
0
0
0
0
0
0
0
0
0
0
0
0
0
0
0
0
0
0
0
0
0
0
0
0
0
0
0
0
0
-57.904192
0
0
0
0
0
0
0
0
0
0
-90.669537
-57.730318
-56.988908
0
-63.611678
-80.395384
-62.924368
-117.06749
-126.75081
-92.507341
-84.693335
-82.907328
-119.38896
-127.51836
-139.81319
-155.55426
-123.23568
-143.75547
-138.08141
-123.80852
-156.5221
-118.63675
-131.1553
-91.137413
-87.405811
-121.97496
-83.881388
-125.27117
-113.57058
-75.493545
-101.69815
-86.668514
-114.4159
-100.32129
-81.896433
-111.06639
-71.241365
-90.631261
-114.72622
-79.212516
-99.083745
-124.01157
-93.7424
0
0
-65.884729
-65.501126
-63.817599
-97.986653
0
0
0
0
0
0
0
0
0
-36.513009
0
0
-32.184472
0
0
0
0
0
0
0
0
0
-47.228059
-43.963212
-35.969308
-28.983161
-39.33347
0
0
0
0
0
0
0
0
-59.991491
-48.566454
-49.697309
0
-42.680481
-69.619049
-42.302622
-73.880501
-92.577477
-67.02406
0
-53.396896
-74.956412
-92.176582
-94.082208
-117.14825
-109.1622
-129.4441
-95.556854
-108.51443
-116.06546
-67.248825
-72.59204
-49.60284
0
-70.67582
-45.634036
-69.14713
-74.233846
-63.574455
-89.098929
-57.999404
-77.018913
-86.874335
-54.161573
-75.895681
-63.067937
-68.560166
-102.57334
-55.632271
-86.868447
-92.170099
-54.424866
0
0
0
0
-35.711527
0
0
-40.742513
0
0
0
0
0
0
0
-61.147525
-47.008407
-42.861676
-51.205262
0
0
0
0
0
0
0
0
0
-55.810244
-61.432309
-41.361235
-42.302241
-54.356809
0
0
0
0
0
0
0
0
0
0
0
0
0
0
0
0
-124.60551
0
0
-119.89553
0
0
0
0
0
0
0
0
0
0
-141.68497
0
-91.324623
-125.6962
-132.95829
0
0
0
0
0
0
0
0
0
0
0
0
0
0
0
0
0
0
0
0
0
0
0
0
0
0
0
0
0
0
0
0
0
0
0
0
0
0
0
0
0
0
0
0
0
0
0
0
0
0
0
0
0
0
0
0
0
0
-74.547035
0
0
0
0
0
0
0
0
0
0
0
0
0
0
0
0
0
0
0
0
0
0
0
0
0
0
0
-129.99235
0
0
0
0
-114.68669
0
0
0
0
0
0
0
0
0
0
0
0
0
0
0
0
0
0
0
0
0
0
-137.89631
-83.730252
-106.26177
-105.05822
0
-122.34685
0
0
0
0
0
0
0
0
0
0
0
0
0
-96.438444
0
0
0
-85.808981
0
0
0
0
0
0
0
0
0
0
0
0
0
0
0
0
0
0
0
0
0
0
0
0
0
0
0
0
0
0
0
0
0
0
-76.066755
0
0
0
0
0
0
0
0
0
0
0
0
0
0
0
0
0
0
0
0
0
0
0
0
0
0
-66.134036
-76.628885
0
0
-75.253179
0
-79.652752
0
0
0
0
0
0
0
0
0
0
0
0
-142.3459
-134.76999
-101.46251
-97.415127
-138.01582
-131.67917
-107.05657
-183.72813
-173.77921
-163.11523
-185.73793
-190.25646
-170.77556
-180.68948
-147.24219
-100.07214
-129.49775
-110.17004
-134.8018
-110.79648
-144.7453
-140.18299
-112.45753
-102.46761
-145.08952
-106.68638
-135.273
-145.8461
-163.14902
-165.50039
-136.51004
-173.55886
-178.87887
-149.12791
-153.4189
-130.43788
-87.613411
-91.689118
-108.27405
-118.31832
-98.060316
-122.35376
-174.52536
-190.94017
-180.17671
-187.67789
-186.6655
-168.95472
-180.27414
0
0
0
-79.3227
-66.297019
0
0
0
0
0
0
0
0
0
0
0
-121.49553
0
0
-88.725951
-100.68951
-78.365737
0
-118.12565
-78.541418
-90.098988
-102.66704
0
-94.370878
-126.6268
-151.65572
-144.31403
-109.10063
-109.4835
-126.05377
0
0
0
0
0
-81.375847
0
0
0
0
0
0
0
0
0
0
0
-89.940516
-96.079078
0
0
0
0
0
0
0
0
0
-95.263502
0
-96.589622
-143.08757
0
-126.33271
-99.472562
-98.094363
-90.463866
-110.72316
-150.70258
-113.34488
-79.154302
-132.71537
0
0
0
-88.803941
0
0
-106.95662
-117.68936
-141.34429
-175.75569
-176.18918
-136.8487
-155.65706
-122.34494
-108.02371
-101.13356
-76.505181
0
-103.64509
-81.02679
-98.54145
-151.64493
-141.92921
-151.18059
-176.45437
-159.78078
-138.95691
-171.82778
-121.8641
-83.433479
-120.82343
-106.935
-110.68423
-93.039188
-138.76517
-123.06294
-109.79161
-132.08589
-86.136769
-95.345662
-140.7631
-112.72961
-131.77426
-131.31627
-133.95992
-95.350981
-147.13054
-117.79214
-113.53532
-151.33054
-184.66134
-163.2533
-156.06498
-164.49059
-172.47474
-139.76711
-106.44676
0
0
0
-81.017243
-94.387058
-90.433385
0
0
0
0
0
0
0
0
0
0
0
0
0
0
0
0
0
0
0
0
0
0
0
0
0
0
0
0
0
-101.43505
0
0
0
0
0
0
0
0
0
0
0
0
0
0
0
0
0
0
0
0
0
0
0
0
0
0
0
0
0
0
0
0
0
0
0
0
0
0
0
0
0
0
0
0
0
0
0
0
0
0
0
0
0
0
0
0
0
0
0
0
0
0
0
0
0
0
0
0
0
0
0
0
0
0
0
0
0
0
0
0
0
0
0
0
-165.13933
-158.03196
-148.21907
-147.83748
-175.44344
-165.71259
-160.85573
-65.689443
0
0
-74.914033
0
0
-78.591789
0
0
0
0
0
0
0
-99.352735
-107.49245
-59.942187
0
-50.913276
-111.07084
-96.603656
-121.67623
-100.53296
-97.397023
-100.06382
-129.81065
-104.09786
-124.17781
0
0
0
0
0
0
0
0
0
0
0
0
0
0
0
0
0
0
0
0
0
0
0
0
0
0
0
0
0
-102.99898
0
0
-134.57831
-107.3405
0
-184.38938
-181.97448
-189.87626
-191.3006
-192.69557
-186.31929
-185.81153
-89.970396
0
0
-77.780647
-86.245186
-76.213991
0
0
0
0
0
0
0
0
0
0
-55.007607
-56.180802
0
0
0
0
-57.798827
-75.143374
-76.19632
0
-59.129809
0
-118.51197
-115.78748
-69.129473
0
-122.95749
-108.01981
-68.868049
-141.1271
-148.32443
-154.06144
-162.35885
-148.63744
-145.91795
-160.03135
-179.92638
-166.32635
-161.29191
-170.77347
-183.57232
-172.52964
-189.83065
0
-103.51042
0
0
0
0
0
0
0
0
0
0
0
0
-181.25245
-165.87132
-145.40583
-155.71468
-197.22673
-172.85499
-188.60697
0
0
0
0
0
0
0
0
-103.64908
0
0
0
-90.056026
0
0
0
0
0
0
0
0
0
0
0
0
0
0
0
0
0
0
0
0
0
0
0
-129.15012
0
0
-149.20588
-110.97422
-139.98326
0
0
0
0
0
0
0
0
0
0
0
0
0
0
0
0
0
0
0
0
0
0
-70.330197
-66.315864
-64.500554
-57.524054
-56.106554
-51.883172
0
0
0
0
0
0
0
0
0
0
0
0
0
0
0
0
0
0
0
0
0
0
0
0
0
0
0
0
0
-53.103996
0
0
0
-45.518215
0
0
0
0
0
0
0
0
0
0
0
0
0
0
0
-85.086606
-109.62029
-132.85931
-137.84356
-119.48526
-99.252282
-95.153791
0
0
0
0
0
0
0
0
0
0
0
0
0
0
0
0
0
0
0
0
0
0
-70.574555
0
0
0
0
-59.74551
0
-110.11318
0
0
0
-97.556691
-78.709403
0
-109.74681
0
0
0
-93.973962
0
0
0
0
0
0
0
0
0
0
0
0
0
0
0
0
0
0
0
0
0
0
0
0
0
0
0
0
0
0
0
0
0
0
0
0
0
0
0
0
0
0
0
0
0
0
0
0
0
0
0
0
0
0
0
0
0
0
0
0
0
0
0
0
-136.67317
-98.513779
-124.99229
-127.85096
-117.08566
-105.64866
-142.17051
-102.73516
-91.255211
-114.80752
-114.93207
-86.144312
-103.68767
-95.624703
-120.62059
-93.228535
-117.11921
-110.71459
-129.86751
-109.04561
-102.6139
-149.54898
-176.67687
-167.64512
-159.04315
-153.43595
-166.79286
-161.51576
-131.80674
-120.49789
-115.50982
-144.17708
-136.56262
-110.86226
-144.4669
-86.595656
-84.939399
-79.980258
-110.30311
-70.775866
-101.19365
-95.347174
-51.827397
0
0
0
0
0
0
-70.268905
-44.591391
-40.278609
-92.984188
-80.357167
-35.232272
-84.635387
-97.309341
-111.24878
-102.62235
-124.21219
-105.8084
-91.965127
-115.83955
-58.722808
-59.064438
0
-34.8587
-49.275772
-68.621507
0
-76.542152
-65.344199
-53.296767
-82.022521
-57.286163
-85.536012
-71.841833
-104.20942
-125.42556
-135.91569
-128.34598
-119.32123
-110.65786
-123.91124
-66.363223
-83.951821
-97.976168
-75.147555
-65.316249
-86.009781
-77.560753
0
0
0
0
0
0
0
0
0
0
0
0
0
0
0
0
0
0
0
0
0
0
-60.953784
0
0
0
0
0
0
-98.533918
-84.635603
0
-85.317195
-79.120204
0
0
0
0
0
0
0
0
0
-40.908741
-27.499028
-32.33859
-41.674073
-45.244247
0
0
0
0
0
0
-33.498995
0
-48.566404
-41.832068
-34.45509
-39.842361
-61.519843
-53.24608
-47.615862
-43.697031
-67.514071
-61.84773
-58.655688
-47.713895
-57.494723
-53.024575
0
0
0
0
0
0
0
-34.824383
-42.828446
-50.472014
0
-37.411932
-47.894176
0
0
0
0
0
0
-37.436393
0
-129.74062
-99.101385
-125.22447
-118.86429
-139.27477
-115.81875
-106.72529
-147.46593
-156.3602
-167.7848
-156.03709
-156.68147
-161.82803
-143.13412
-98.101675
-57.640441
-45.299198
-100.74744
-89.756399
-49.87238
-107.46447
-86.842338
0
0
0
-72.259852
0
-86.147978
-87.65716
-68.678002
-39.688901
0
-78.375417
-73.506809
-44.124617
-146.0758
-140.1676
-161.32879
-147.19709
-152.85277
-133.78944
-156.92063
-129.30261
-120.02902
-143.68787
-105.65974
-141.29736
-106.20469
-128.80813
-117.96634
-109.51874
-97.20909
-98.473855
-128.98374
-109.62637
-119.04236
-75.888277
-53.470865
-74.062295
-77.283537
-58.760379
-57.748926
-79.368907
-90.943123
-62.096344
-79.700452
-82.293271
-75.940239
-92.736536
-66.217661
-86.134201
-81.865839
-75.277334
-103.875
-97.510955
-90.695535
-70.645012
-102.18154
-130.96467
-103.89295
-125.34826
-104.0222
-104.95207
-125.79787
-80.209893
-60.162256
-62.833617
-81.550664
-82.855991
-60.387148
-80.962741
-55.483207
-71.245899
-52.762357
-62.951634
-89.888469
-81.646214
-68.406721
0
0
0
-39.175496
0
-36.625799
0
-68.566445
-47.822707
-50.200385
-58.218457
-70.175498
-75.742434
-54.233833
-64.599664
-77.942826
-90.366805
-67.900931
-82.962598
-71.03678
-60.931704
0
0
0
0
0
0
0
-68.546629
-94.670943
-93.302665
-76.471313
-87.829246
-73.88451
-72.800598
-45.644289
0
-48.243179
0
0
-42.360085
0
0
0
0
0
0
0
0
0
0
0
0
0
0
0
0
0
0
0
0
0
0
0
0
0
0
0
0
0
0
0
0
0
0
0
0
0
0
0
0
0
0
0
0
0
0
0
0
0
0
0
0
0
0
0
0
0
0
0
0
0
0
0
0
0
-107.57146
-99.31383
0
0
0
0
0
0
0
-78.473372
0
0
0
0
0
0
0
0
0
0
0
0
0
0
0
0
0
0
0
0
0
0
0
0
0
0
0
0
0
0
0
-77.474261
0
0
0
-58.813718
-80.25397
0
0
0
0
0
0
0
0
0
0
0
0
0
0
0
0
-134.84523
-103.18789
0
-106.69916
0
0
0
-58.848998
0
-79.755078
-80.771689
0
0
0
0
0
0
0
0
0
-170.57994
-178.18016
-181.6856
-185.1823
-169.76982
-183.56851
-176.24647
-191.75319
-195.02067
-184.02746
-175.6546
-187.0911
-182.76461
-188.27277
-189.32079
-174.22566
-178.1796
-168.28665
-189.73197
-177.69
-182.50667
-142.45659
-172.81954
-146.73819
-158.77152
-134.03162
-165.29149
-154.5895
-88.005337
0
0
0
-83.316104
0
0
-106.51187
-53.836762
-108.38795
-71.261786
-97.285251
-123.48036
-61.223237
-126.9526
-113.61509
-134.64396
-129.39603
-125.05658
-141.42273
-109.0992
-148.21224
-173.55105
-155.46299
-144.29344
-140.19213
-170.88439
-156.34468
-120.58813
-126.74289
-86.608858
-124.65117
-110.49483
-138.55078
-99.631048
-105.95981
-124.45547
0
-74.756834
-103.42097
-124.79496
-63.12718
-110.08535
-153.45291
-122.15449
-153.98884
-111.25061
-120.71527
-140.38695
0
0
0
0
0
0
0
0
0
0
0
-69.180974
0
0
0
0
0
0
-94.990127
0
0
-89.583023
-131.65082
-78.343371
-97.51753
-99.409068
-118.56864
0
0
-79.51735
0
0
0
-87.042079
0
0
-123.72275
0
0
0
-113.11314
0
0
-80.06986
-67.279709
-68.860212
0
-80.714315
0
-70.074782
-124.0232
-91.79237
-94.57591
-102.3919
-128.84838
-71.874609
-127.01242
-148.37732
-110.67741
-111.98813
-176.07515
-127.33308
-151.98947
-112.76122
-175.85671
-120.46926
-146.34763
-105.78514
-127.60426
-155.37419
-57.986053
0
0
0
-54.683658
0
0
-70.032576
0
-78.231388
0
-66.743803
-81.825224
0
-95.957823
-106.97176
-123.50909
-67.273466
-89.106613
-134.19043
-73.285253
0
-90.226477
-96.641683
-98.433505
0
-91.16916
0
-91.318454
-152.26534
-113.77865
-115.5072
-131.08943
-153.26797
-92.447536
-141.51341
-176.43847
-137.57138
-138.2065
-193.26395
-176.8546
-141.43523
-138.46993
-192.0673
-166.96462
-133.45577
-177.38652
-131.7167
-140.82982
-78.559365
0
-58.524843
0
-76.183135
-60.412887
0
-115.92033
-133.17538
-145.34227
-87.608896
-155.44891
-109.76249
-93.336442
-99.761082
0
-88.067502
0
-96.145953
-91.953728
0
-164.09606
-179.50113
-177.17443
-178.70719
-173.97171
-172.47548
-164.93256
-163.06554
-166.86004
-180.11234
-162.54355
-175.34144
-173.20561
-148.93373
-122.84083
-67.035255
-114.39195
-72.351033
-119.25523
-124.84286
-71.298238
-115.52197
0
-94.183561
0
-112.24377
-103.35928
-69.699788
-169.03335
-176.64766
-173.14013
-164.05724
-170.78715
-176.40921
-171.98335
-152.71279
-162.38046
-153.1752
-122.82539
-165.48475
-145.31759
-137.52992
-124.66246
-141.87556
-79.135964
0
-131.29898
-130.16237
-75.196194
-147.69848
-142.52666
-156.95064
-167.07128
-133.5219
-151.05194
-164.08863
-184.92666
-161.41197
-169.41378
-174.36985
-185.36054
-185.55436
-166.49254
-178.47856
-188.0882
-179.80428
-159.58916
-186.25336
-166.59741
-171.38761
-167.46411
-150.15414
-141.54918
-148.54123
-147.63996
-154.9171
-166.55505
-175.36729
-143.71912
-143.56037
-150.39875
-156.81724
-159.61788
-176.84427
0
0
0
0
0
0
0
-150.1095
-96.277352
-135.54741
-146.25141
-129.83068
-158.2981
-108.71084
0
0
0
0
0
0
0
0
0
0
0
0
0
0
-170.79895
-185.20363
-163.68971
-177.11505
-172.18315
-158.62969
-192.36212
-145.20282
-131.35308
-101.97641
-152.749
-158.64334
-135.17415
-108.3562
0
0
0
0
0
0
-152.29368
0
0
0
0
0
0
0
0
0
0
0
0
0
0
0
0
0
0
0
0
0
0
0
0
0
0
0
0
0
0
0
0
0
0
0
0
0
0
0
0
0
0
0
-150.336
-154.77599
-161.48559
-138.2724
-146.02912
-143.74365
0
0
0
0
0
0
0
0
0
0
0
0
0
0
0
0
-146.47879
-105.08598
-127.52865
-124.92156
0
0
0
0
0
0
0
0
0
0
0
0
0
0
0
0
0
0
0
-91.311089
0
0
0
0
0
0
0
0
0
0
0
0
0
0
0
0
0
0
0
0
0
0
0
0
-93.729742
0
0
0
0
0
0
0
0
0
0
-155.17397
0
-145.79881
-94.386651
-116.12765
-129.11957
-138.00475
-154.28873
-105.08401
0
0
0
0
0
0
0
0
0
0
0
0
0
0
-164.28461
-198.15565
-161.11018
-170.87664
-178.27042
-191.35523
-142.75154
-142.52036
-145.31281
-100.59816
-146.84112
-164.66282
-115.27697
-121.55013
0
0
0
0
-160.25487
0
0
0
0
0
0
0
0
0
0
0
0
0
0
0
0
0
0
0
0
0
0
0
0
0
0
0
0
0
0
0
0
0
0
0
0
0
0
0
0
0
0
0
0
0
0
0
0
0
0
0
-69.585024
0
0
0
-104.82712
-69.965893
-76.533473
0
0
0
0
0
0
0
0
0
0
0
0
0
0
0
0
0
0
0
0
0
0
-108.63424
0
-65.235283
-70.172452
-80.98501
0
0
0
0
0
0
0
0
-98.536672
-149.58544
-143.51136
-150.04769
-125.47244
-128.86767
-120.83512
0
0
0
0
0
0
0
0
0
0
0
0
0
0
0
-82.068239
-127.56233
-94.254631
-107.80837
-98.27366
0
0
0
0
0
0
0
0
0
0
0
0
0
0
0
0
0
0
0
0
0
0
0
0
0
0
0
0
0
0
0
0
0
0
0
0
0
0
0
0
0
0
0
0
0
0
0
0
0
0
0
0
0
0
0
0
0
0
0
0
0
0
0
0
0
0
0
0
0
0
0
0
-101.88136
0
-106.61954
0
-86.530341
0
0
0
0
0
0
0
0
0
0
0
-94.371297
0
0
0
0
0
0
0
-69.997758
0
0
0
0
0
0
0
0
0
0
0
0
0
0
0
0
0
0
0
0
0
0
0
0
-74.420194
0
0
0
0
0
0
0
0
0
0
0
0
-114.41083
0
0
0
-99.436802
-127.58955
0
0
0
0
0
0
0
0
0
0
0
0
0
0
0
0
-149.1621
0
-125.96646
-110.20747
-144.55854
0
0
0
0
0
0
0
0
0
-107.83751
0
-117.15388
-138.71893
0
0
0
0
0
0
0
0
0
0
0
0
0
0
0
0
0
0
0
0
0
0
0
0
0
0
0
0
0
0
0
0
0
0
0
0
0
0
0
0
0
0
0
0
0
0
0
0
0
0
0
0
0
0
0
0
0
0
0
0
0
0
0
0
0
0
0
0
0
0
0
0
0
0
0
0
0
0
0
0
0
0
0
0
0
0
0
0
0
0
0
0
0
0
0
0
0
0
0
0
0
0
0
0
0
0
0
0
0
0
0
0
0
0
0
0
0
0
0
0
0
0
0
0
0
0
0
0
0
0
0
0
0
0
0
0
0
0
0
0
0
0
0
0
0
0
0
0
0
0
0
0
0
0
0
0
0
0
0
0
0
0
0
0
0
0
0
0
0
0
0
0
0
0
0
0
0
0
0
0
0
0
0
0
0
0
0
0
0
0
0
0
0
0
0
0
0
0
0
0
0
0
0
0
0
0
0
0
0
0
0
0
0
0
0
0
0
0
0
0
0
0
0
0
0
0
0
0
0
0
0
0
0
0
0
0
0
0
0
0
0
0
0
0
0
0
0
0
0
0
0
0
0
0
0
0
0
0
0
0
0
0
0
0
0
0
0
0
0
0
0
0
0
0
0
0
0
0
0
0
0
0
0
0
0
0
0
0
0
0
0
0
0
0
0
0
0
0
0
0
0
0
0
0
0
0
0
0
0
0
0
0
0
0
0
0
0
0
0
0
0
0
0
0
0
0
0
0
0
0
0
0
0
0
0
0
0
0
0
0
0
0
0
0
0
0
0
0
0
0
0
0
0
0
0
0
0
0
0
0
0
0
0
0
0
0
0
0
0
0
0
0
0
0
0
0
0
0
0
0
0
0
0
0
0
0
0
0
0
0
0
0
0
0
0
0
0
0
0
0
0
0
0
0
0
0
0
0
0
0
0
0
0
0
0
0
0
0
0
0
0
0
0
0
0
0
0
0
0
0
0
0
0
0
0
0
0
0
0
0
0
0
0
0
0
0
0
0
0
0
0
0
0
0
0
0
0
0
0
0
0
0
0
0
0
0
0
0
0
0
0
0
0
0
0
0
0
0
0
0
0
0
0
0
0
0
0
0
0
0
0
0
0
0
0
0
0
0
0
0
0
0
0
0
0
0
0
0
0
0
0
0
0
0
0
0
0
0
0
0
0
0
0
0
0
0
0
0
0
0
0
0
0
0
0
0
0
0
0
0
0
0
0
0
0
0
0
0
0
0
0
0
0
0
0
0
0
0
0
0
0
0
0
0
0
0
0
0
0
0
0
0
0
0
0
0
0
0
0
0
0
0
0
0
0
0
0
0
0
0
0
0
0
0
0
0
0
0
0
0
0
0
0
0
0
0
0
0
0
0
0
0
0
0
0
0
0
0
0
0
0
0
0
0
0
0
0
0
0
0
0
0
0
0
0
0
0
0
0
0
0
0
0
0
0
0
0
0
0
0
0
0
0
0
0
0
0
0
0
0
0
0
0
0
0
0
0
0
0
0
0
0
0
0
0
0
0
0
0
0
0
0
0
0
0
0
0
0
0
0
0
0
0
0
0
0
0
0
0
0
0
0
0
0
0
0
0
0
0
0
0
0
0
0
0
0
0
0
0
0
0
0
0
0
0
0
0
0
0
0
0
0
0
0
0
0
0
0
0
0
0
0
0
0
0
0
0
0
0
0
0
0
0
0
0
0
0
0
0
0
0
0
0
0
0
0
0
0
0
0
0
0
0
0
0
0
0
0
0
0
0
0
0
0
0
0
0
0
0
0
0
0
0
0
0
0
0
0
0
0
0
0
0
0
0
0
0
0
0
0
0
0
0
0
0
0
0
0
0
0
0
0
0
0
0
0
0
0
0
0
0
0
0
0
0
0
0
0
0
0
0
0
0
0
0
0
0
0
0
0
0
0
0
0
0
0
0
0
0
0
0
0
0
0
0
0
0
0
0
0
0
0
0
0
0
0
0
0
0
0
0
0
0
0
0
0
0
0
0
0
0
0
0
0
0
0
0
0
0
0
0
0
0
0
0
0
0
0
0
0
0
0
0
0
0
0
0
0
0
0
0
0
0
0
0
0
0
0
0
0
0
0
0
0
0
0
0
0
0
0
0
0
0
0
0
0
0
0
0
0
0
0
0
0
0
0
0
0
0
0
0
0
0
0
0
0
0
0
0
0
0
0
0
0
0
0
0
0
0
0
0
0
0
0
0
0
0
0
0
0
0
0
0
0
0
0
0
0
0
0
0
0
0
0
0
0
0
0
0
0
0
0
0
0
0
0
0
0
0
0
0
0
0
0
0
0
0
0
0
0
0
0
0
0
0
0
0
0
0
0
0
0
0
0
0
0
0
0
0
0
0
0
0
0
0
0
0
0
0
0
0
0
0
0
0
0
0
0
0
0
0
0
0
0
0
0
0
0
0
0
0
0
0
0
0
0
0
0
0
0
0
0
0
0
0
0
0
0
0
0
0
0
0
0
0
0
0
0
0
0
0
0
0
0
0
0
0
0
0
0
0
0
0
0
0
0
0
0
0
0
0
0
0
0
0
0
0
0
0
0
0
0
0
0
0
0
0
0
0
0
0
0
0
0
0
0
0
0
0
0
0
0
0
0
0
0
0
0
0
0
0
0
0
0
0
0
0
0
0
0
0
0
0
0
0
0
0
0
0
0
0
0
0
0
0
0
0
0
0
0
0
0
0
0
0
0
0
0
0
0
0
0
0
0
0
0
0
0
0
0
0
0
0
0
0
0
0
0
0
0
0
0
0
0
0
0
0
0
0
0
0
0
0
0
0
0
0
0
0
0
0
0
0
0
0
0
0
0
0
0
0
0
0
0
0
0
0
0
0
0
0
0
0
0
0
0
0
0
0
0
0
0
0
0
0
0
0
0
0
0
0
0
0
0
0
0
0
0
0
0
0
0
0
0
0
0
0
0
0
0
0
0
0
0
0
0
0
0
0
0
0
0
0
0
0
0
0
0
0
0
0
0
0
0
0
0
0
0
)


5972
(
0
0
0
0
0
0
0
0
0
0
0
0
0
0
0
0
0
0
0
0
0
0
0
0
0
0
0
0
0
0
0
0
0
0
0
0
0
0
0
0
0
0
0
0
0
0
0
0
0
0
0
0
0
0
0
0
0
0
0
0
0
0
0
0
0
0
0
0
0
0
0
0
0
0
0
0
0
0
0
0
0
0
0
0
0
0
0
0
0
0
0
0
0
0
0
0
0
0
0
0
0
0
0
0
0
0
0
0
0
0
0
0
0
0
0
0
0
0
0
0
0
-136.78151
0
-92.109994
0
0
0
0
-146.03716
0
0
0
0
0
0
0
0
0
0
0
0
0
0
0
0
0
0
0
-93.941466
0
0
0
0
0
0
0
0
0
0
0
0
0
0
0
0
0
0
0
0
0
0
0
0
0
0
0
0
0
0
0
0
0
0
0
0
0
0
0
0
0
0
0
0
0
0
0
0
0
0
0
0
0
0
0
0
0
0
0
0
0
0
0
0
0
0
0
0
0
0
0
0
0
0
0
0
0
0
0
-154.29178
0
0
0
0
0
0
-149.19225
0
0
-104.54821
0
0
0
0
-104.23285
0
0
0
0
0
0
0
0
0
0
0
0
0
0
0
0
0
0
0
0
0
0
0
0
0
0
0
0
0
0
0
0
0
0
0
0
0
0
0
0
0
0
0
0
0
0
0
0
0
0
0
0
0
0
0
0
0
0
0
0
0
0
0
0
0
0
0
0
0
0
0
0
0
0
0
0
0
0
0
0
0
0
0
0
0
0
0
0
0
0
0
0
0
0
0
0
0
0
0
0
0
0
0
0
0
0
0
0
0
0
0
0
0
0
0
0
0
0
0
0
0
0
0
0
0
0
0
0
0
0
0
0
0
0
0
0
0
0
0
0
0
0
0
0
0
0
0
0
0
0
0
0
0
0
0
0
0
0
0
0
0
0
0
0
0
0
0
0
0
0
0
0
0
0
0
0
0
0
0
0
0
0
0
0
0
0
0
0
0
0
0
0
0
0
0
0
0
0
0
0
0
0
0
0
0
0
0
0
0
0
0
0
0
0
0
0
0
0
0
0
0
0
0
0
0
0
0
-142.1174
0
0
0
0
-97.204266
0
0
0
0
0
0
-101.48917
0
0
0
0
0
0
0
0
0
0
0
0
0
0
0
0
0
0
0
0
0
0
0
0
0
0
0
0
0
0
0
0
0
0
0
0
0
0
0
0
0
0
0
0
0
0
0
0
-154.26045
0
0
0
0
0
-108.34586
-153.77793
0
0
0
0
0
0
0
0
0
0
0
0
0
-162.11261
0
0
0
0
0
0
0
0
0
0
0
0
0
0
0
0
0
0
0
0
0
0
0
0
0
0
0
0
0
0
0
0
0
0
0
0
0
0
0
0
0
0
0
0
0
0
0
0
0
0
0
0
0
0
0
0
0
0
0
-108.83117
0
0
0
0
0
0
0
0
0
0
0
0
0
0
0
0
0
0
0
0
0
0
0
0
0
0
0
0
0
0
0
0
0
0
0
0
0
0
0
0
0
0
0
0
0
0
0
0
0
0
0
0
0
0
0
0
0
0
0
0
0
0
0
0
0
0
0
0
0
0
0
0
0
0
0
0
0
0
0
0
0
0
0
0
0
0
0
0
0
0
0
0
0
0
0
0
0
0
0
0
0
0
0
0
0
0
0
0
0
0
0
0
0
0
0
0
0
0
0
0
0
0
0
0
0
0
0
0
0
0
0
0
0
0
0
0
0
0
0
0
0
0
0
0
0
0
0
0
0
0
0
0
0
0
0
0
0
0
0
0
0
0
0
0
0
0
0
0
0
0
0
0
0
0
0
0
0
0
0
0
0
0
0
0
0
0
0
0
0
0
0
0
0
0
0
0
0
0
-49.376871
0
0
0
0
0
0
0
0
0
0
0
0
0
-52.187755
0
0
-84.22128
-106.21575
-87.141849
-53.908466
-71.633641
0
0
0
0
0
-36.619149
0
0
0
0
-100.23895
-36.879953
-47.915884
-67.839891
0
0
0
-61.353789
0
-41.956237
0
0
0
0
0
0
0
0
0
0
0
0
0
0
0
0
0
0
0
0
0
0
0
0
0
0
-82.893058
0
0
0
0
0
0
0
0
0
0
0
0
0
0
0
0
0
0
0
0
0
0
0
0
0
0
0
0
0
0
0
0
0
0
0
0
0
0
0
0
0
0
0
0
0
0
0
0
0
0
0
0
0
0
0
0
0
0
0
0
0
0
0
0
0
0
0
0
0
0
0
0
0
0
0
0
0
0
0
0
0
0
0
0
0
0
0
0
0
0
0
0
0
0
0
0
0
0
0
0
0
0
0
0
0
0
0
0
0
0
0
0
0
0
0
0
0
0
0
0
0
0
0
0
0
0
0
0
0
0
0
0
0
0
0
0
0
0
0
0
0
0
0
0
0
0
0
0
0
0
0
0
0
0
0
0
0
0
0
0
0
0
0
0
0
0
0
0
0
0
0
0
0
0
0
0
0
0
0
0
0
0
0
0
0
0
0
0
0
0
0
0
0
0
0
0
0
0
0
0
0
0
0
0
0
0
0
0
0
0
0
0
0
0
0
0
0
0
0
0
0
0
0
0
0
0
0
0
0
0
0
0
0
0
0
0
0
0
0
0
0
0
0
0
0
0
0
0
0
0
0
0
0
0
0
0
0
0
0
0
0
0
0
0
0
0
0
0
0
0
0
0
0
0
0
0
0
0
0
0
0
0
0
0
0
0
0
0
0
0
0
0
0
0
0
0
0
0
0
0
0
0
0
0
0
0
0
0
0
-105.34661
0
0
0
0
0
0
0
0
0
0
0
0
0
0
0
0
0
0
0
0
-86.41675
0
0
0
0
0
0
0
0
0
0
0
-59.562737
0
0
0
0
0
0
-63.801783
0
0
0
0
-84.818461
-128.75673
-85.594761
-117.53858
-133.40696
0
-160.08337
0
0
0
-112.05689
-57.77371
-153.38195
0
0
0
0
-108.05858
-120.57118
0
-153.15113
0
-122.94883
-81.156826
-122.12051
-79.941871
-160.42194
0
0
0
0
0
0
0
0
0
0
0
0
0
0
0
0
0
0
0
0
0
0
0
0
0
0
0
0
0
0
0
0
0
0
0
0
-56.872345
0
0
0
0
0
0
0
0
0
0
0
0
0
0
0
0
0
0
0
0
0
0
0
0
0
0
0
0
0
0
0
0
0
0
0
0
0
0
0
0
0
0
0
0
0
0
0
0
0
0
0
0
0
0
0
0
0
0
0
0
0
0
0
0
0
0
0
0
0
0
0
0
0
0
0
0
0
0
0
0
0
0
0
0
0
0
0
0
0
0
0
0
0
0
0
0
0
0
0
0
0
0
0
0
0
0
0
0
0
0
0
0
0
0
0
0
0
0
0
0
0
0
0
0
0
0
0
0
0
0
0
0
0
0
0
0
0
0
0
0
0
0
0
0
0
0
0
0
0
0
0
0
0
0
0
0
0
0
0
0
0
0
0
0
0
0
0
0
0
0
0
0
-94.20712
0
0
0
0
0
0
0
0
0
0
0
0
0
0
0
0
0
0
0
0
0
0
0
0
0
0
0
0
0
0
0
0
0
0
0
0
0
0
0
0
0
-145.75276
0
0
0
0
-59.687874
0
0
0
0
0
0
0
0
0
0
0
0
0
0
0
0
0
0
0
0
0
0
0
0
0
0
0
0
0
0
0
0
0
0
0
0
0
0
0
0
0
0
0
0
0
0
0
0
0
0
0
0
0
0
0
0
0
0
0
0
0
0
0
0
0
0
0
0
0
0
0
0
0
0
0
0
0
0
0
0
0
0
0
0
0
0
0
0
0
0
0
0
0
0
0
0
0
0
0
0
0
0
0
0
0
0
-106.302
-131.42874
-125.76751
-126.69783
-111.76885
-120.26114
-122.18044
0
0
0
0
0
0
0
-67.683806
-87.229193
-90.953364
-72.358291
-70.69957
-67.967897
-88.137275
0
0
0
0
0
0
0
0
-138.83474
-125.94285
-135.84762
-112.27732
-127.79027
-117.58273
0
0
0
0
0
0
0
0
0
0
0
0
0
0
0
0
0
0
0
0
0
0
0
0
0
0
0
0
0
0
0
0
0
0
0
0
-87.398373
0
-74.576065
0
0
0
0
0
0
0
0
0
0
0
0
0
0
0
0
0
0
0
0
0
0
0
0
0
0
0
0
-111.06645
-140.16325
-142.47934
-146.56969
-130.30468
-125.49352
-129.64393
0
0
0
0
0
0
0
-145.96887
-139.17413
-142.17139
-156.0697
-160.77895
-135.98802
-142.12157
0
0
0
0
0
0
0
0
0
0
0
-61.577881
0
0
-113.37651
-101.35119
-109.42268
-106.47095
-121.35334
-106.89894
-98.499734
0
-100.61677
0
-96.785331
0
0
-89.379553
0
0
0
0
0
0
0
0
0
0
0
0
0
0
0
0
0
0
0
0
0
0
0
0
0
0
0
0
0
0
0
0
0
0
0
0
0
0
0
0
0
0
0
0
0
0
0
0
0
0
0
0
0
0
0
0
0
0
0
0
0
0
0
0
0
0
0
0
0
0
0
0
0
0
0
0
0
0
0
0
0
0
0
0
0
0
0
0
0
0
-100.85909
-97.506989
-58.298987
-112.93619
-150.35684
-124.08916
-123.18116
-105.46975
0
-57.151395
-111.92244
0
-69.003261
-139.72514
-101.29184
0
0
0
0
-98.684015
0
-31.257894
0
-45.421241
-94.200905
0
-56.378627
0
-116.31775
-147.85519
-59.574364
0
0
-144.62705
-118.51526
-102.069
-41.595866
-52.566335
-103.92648
-110.76954
-72.539823
-114.02793
-74.051339
0
-50.909276
-102.44291
0
-109.44956
0
0
0
0
0
0
0
0
0
0
0
0
0
0
0
0
0
0
0
0
0
0
0
0
0
0
0
0
0
-101.52656
0
0
0
0
0
0
0
0
0
0
0
0
0
-42.29436
0
0
-107.09048
-62.949381
0
0
0
0
-143.84894
-147.02307
-167.77084
-176.27954
-151.23289
-145.82045
-148.6802
-168.60186
0
-68.526506
-111.09629
-147.38514
-77.506316
0
-148.74862
0
0
0
-122.20462
0
0
0
-62.510095
-168.85412
-160.67043
0
0
-70.051096
0
-126.99221
-170.38851
-160.30089
0
-125.95874
0
-163.13888
-139.28157
-69.251265
0
-150.44858
-130.09474
0
-132.89699
-86.344967
-169.30392
-185.86249
-114.73608
-137.93258
-98.775285
0
-95.220011
0
0
-156.63562
-110.30233
0
0
0
0
0
-78.498636
0
0
0
0
0
0
0
0
0
0
0
0
0
0
0
0
0
0
0
0
0
0
0
0
-146.90609
0
0
-104.96003
0
0
-68.828995
0
0
0
0
-87.030634
0
0
-116.30382
0
0
-147.95737
-114.87192
0
0
0
0
0
0
0
0
0
0
0
0
-89.534776
0
0
0
0
0
0
0
0
0
0
0
0
0
0
0
0
0
-93.089548
0
0
0
-92.210788
0
0
-129.22818
0
0
-100.38212
0
0
0
0
0
0
0
0
0
0
0
0
0
0
0
0
0
0
0
0
0
0
0
0
0
0
0
0
0
0
0
0
0
0
0
0
0
0
0
0
0
0
0
0
0
0
0
0
0
0
0
-97.687371
0
-57.548192
0
0
0
0
0
0
0
0
0
0
0
-63.525291
0
0
-107.92368
0
-77.084636
0
0
0
0
0
0
0
0
0
0
0
0
0
0
0
0
0
0
0
0
0
0
0
0
0
0
0
0
0
0
0
0
0
0
0
0
0
0
0
0
0
0
0
0
0
0
0
0
0
0
0
0
0
0
0
0
0
0
0
0
0
0
0
0
0
0
0
0
-54.665329
0
0
0
0
0
0
0
0
0
0
-71.040552
-45.096922
-51.022717
0
-56.968656
-62.589588
-50.663638
-97.652516
-110.76377
-80.739219
-80.312607
-73.600651
-107.83822
-105.0673
-93.496985
-113.56754
-86.228264
-103.95313
-96.747722
-83.980902
-111.36703
-87.477295
-109.01056
-74.719317
-76.806098
-94.28906
-66.494008
-99.876819
-76.171221
-49.108237
-69.055636
-63.843263
-80.951103
-65.781911
-57.354112
-88.609137
-61.958307
-75.622951
-92.261526
-67.452343
-81.101999
-98.305228
-80.510237
0
0
-66.737816
-63.416955
-58.21416
-90.864358
0
0
0
0
0
0
0
0
0
-28.734015
0
0
-24.83591
0
0
0
0
0
0
0
0
0
-32.791684
-32.625287
-25.870229
-22.041327
-28.764036
0
0
0
0
0
0
0
0
-51.240562
-40.606081
-46.479679
0
-41.759555
-56.903765
-36.706125
-64.269864
-78.147009
-61.079934
0
-49.554721
-63.697639
-79.525574