/*--------------------------------*- C++ -*----------------------------------*\
  =========                 |
  \\      /  F ield         | OpenFOAM: The Open Source CFD Toolbox
   \\    /   O peration     | Website:  https://openfoam.org
    \\  /    A nd           | Version:  8
     \\/     M anipulation  |
\*---------------------------------------------------------------------------*/
/*   Windows 32 and 64 bit porting by blueCAPE: http://www.bluecape.com.pt   *\
|  Based on Windows porting (2.0.x v4) by Symscape: http://www.symscape.com   |
\*---------------------------------------------------------------------------*/
FoamFile
{
    version     2.0;
    format      ascii;
    class       scalarListList;
    location    "constant/vegetation";
    object      F;
}
// * * * * * * * * * * * * * * * * * * * * * * * * * * * * * * * * * * * * * //


69
(

1738
(
0.0002275537
8.0100174e-05
0.0020880532
0.0018997414
0.00019801418
0.00010529442
0.00011742355
5.13865e-05
9.2065629e-05
6.2852707e-05
1.818923e-05
7.6989538e-06
4.022934e-05
2.2331856e-05
1.9549995e-05
5.5088641e-05
1.0756567e-05
4.1540282e-05
1.0146893e-05
1.3338059e-05
2.5335068e-05
4.7344145e-06
5.9203493e-06
1.0599303e-05
4.9984977e-06
3.0682271e-06
3.0659498e-06
3.4604279e-06
3.887836e-06
2.3744422e-06
2.8509097e-06
0.00035363721
0.0010260089
0.00022384409
6.5418141e-06
4.3834733e-06
1.7562115e-05
5.3875763e-06
1.5651742e-05
1.5683186e-05
1.7064623e-05
6.6077902e-06
1.54267e-05
6.5636855e-06
1.7806769e-05
1.7797439e-05
6.6096797e-06
5.0118061e-06
5.0775945e-06
5.151901e-06
6.4722539e-06
5.3327247e-06
6.1633486e-06
3.7501074e-06
3.7646551e-06
3.7686326e-06
3.7668011e-06
3.7423735e-06
3.7058368e-06
4.726461e-06
3.6348336e-06
3.9457135e-06
6.9142684e-06
6.1768067e-06
5.0330545e-06
5.8467964e-06
4.1006956e-06
3.7735024e-06
3.9527994e-06
4.8001603e-06
4.3140128e-06
1.5761553e-05
4.0981173e-06
4.0998688e-06
4.0807364e-06
1.5745048e-05
4.0973852e-06
4.0709816e-06
1.4957321e-05
3.9553783e-06
1.8533443e-05
5.0216116e-06
5.7429319e-06
6.7417755e-06
6.2326973e-06
6.080802e-06
4.0656611e-06
4.7471177e-06
4.2478133e-06
3.8730327e-06
3.7563916e-06
3.8791091e-06
3.7612222e-06
3.8873553e-06
3.8838953e-06
3.8900987e-06
3.7682746e-06
3.8901851e-06
3.8894311e-06
3.767811e-06
3.8902671e-06
3.8657557e-06
3.7314396e-06
3.8576469e-06
3.717601e-06
3.8442919e-06
3.8496272e-06
9.7433063e-06
6.6173409e-06
7.4830733e-06
6.5102101e-06
6.7238616e-06
7.158862e-06
5.4527857e-06
5.2848018e-06
5.7277642e-06
6.3493517e-06
5.5524163e-06
6.0243275e-06
3.8924016e-06
3.7963004e-06
3.9026663e-06
4.0119467e-06
3.8515402e-06
3.9328688e-06
5.1993639e-06
4.6005549e-06
4.9727946e-06
4.6540264e-06
4.4442404e-06
4.7881728e-06
1.8500045e-05
1.6544733e-05
1.7937127e-05
1.7899617e-05
1.8745135e-05
1.8872549e-05
1.876925e-05
1.787523e-05
1.8849682e-05
4.1014098e-06
4.5901376e-06
4.6210257e-06
4.1013265e-06
4.6219081e-06
4.6218678e-06
4.0879101e-06
4.5965648e-06
4.6079569e-06
4.0934084e-06
4.6191339e-06
4.6140756e-06
4.0526616e-06
4.5844114e-06
4.5329981e-06
3.9949076e-06
3.9795301e-06
4.4436717e-06
5.2709078e-06
5.2833399e-06
5.5518367e-06
5.4830259e-06
5.455101e-06
5.7352471e-06
6.3720328e-06
6.5399593e-06
6.2260183e-06
4.0763788e-06
4.5316322e-06
4.1217857e-06
4.5337667e-06
4.9812931e-06
4.3281882e-06
4.1560748e-06
4.3982207e-06
4.7531853e-06
4.1805008e-06
1.5462951e-05
3.289932e-06
3.7001483e-06
6.2877593e-06
6.4848319e-06
5.4745411e-06
3.581361e-06
3.7572626e-06
4.709705e-06
3.8499659e-06
3.708062e-06
3.895568e-06
4.2022253e-06
4.4983248e-06
6.2937733e-06
4.2208446e-06
3.9927068e-06
4.0441242e-06
6.5213082e-06
6.0169386e-06
5.9939791e-06
4.4243821e-06
4.6009437e-06
4.6423761e-06
7.6582187e-06
5.3845872e-06
6.0208408e-06
6.6188339e-06
6.0830784e-06
6.1166754e-06
6.3060372e-06
6.6061086e-06
6.3418973e-06
6.6121717e-06
6.3071647e-06
6.3469303e-06
3.8204918e-06
3.8088081e-06
3.9055453e-06
6.5030137e-06
5.9371927e-06
5.9628874e-06
4.8325651e-06
5.1224635e-06
4.8724039e-06
6.4910052e-06
5.9213532e-06
5.9301567e-06
5.5413249e-06
5.4029871e-06
5.7140959e-06
6.655807e-06
6.3598896e-06
6.1982535e-06
6.5822422e-06
6.0313117e-06
6.0455465e-06
6.6133894e-06
6.0740637e-06
6.074058e-06
6.5963094e-06
6.0649814e-06
6.0567859e-06
6.6146142e-06
6.0702229e-06
6.0729267e-06
4.3114345e-06
4.0988766e-06
4.1187261e-06
4.4967713e-06
3.8978871e-06
4.0028138e-06
6.0888444e-06
6.2154241e-06
6.0573867e-06
5.9005284e-06
6.0938888e-06
5.9650234e-06
4.559972e-06
5.2637489e-06
4.7833678e-06
5.4329878e-06
5.2015291e-06
4.9708079e-06
5.8814708e-06
5.5115795e-06
5.8173064e-06
6.0958264e-06
5.6902395e-06
6.1111331e-06
6.1043281e-06
6.3234083e-06
6.116613e-06
6.3334252e-06
6.1347472e-06
6.126845e-06
6.1410964e-06
6.3473079e-06
6.1444756e-06
6.1399711e-06
6.3477727e-06
6.1433303e-06
5.7965906e-05
1.9138656e-05
1.6410648e-05
1.3225677e-05
5.1386301e-05
4.3656658e-05
7.0731471e-06
2.7856248e-05
1.8126614e-05
1.5942168e-05
7.3981072e-06
5.4220086e-06
4.9966837e-06
5.4137903e-06
5.3952193e-06
5.3061995e-06
2.0771593e-05
2.0143533e-05
1.9140942e-05
2.0820669e-05
1.8765311e-05
2.0688933e-05
1.8662859e-05
1.9869638e-05
1.9201348e-05
2.0190047e-05
2.0627383e-05
1.9980795e-05
2.0233955e-05
2.0946093e-05
2.0387278e-05
2.095839e-05
2.0725582e-05
2.0677756e-05
2.0133206e-05
2.061934e-05
2.0465047e-05
2.0063146e-05
2.0543551e-05
2.0717286e-05
2.0278709e-05
2.0752909e-05
2.032571e-05
2.0832662e-05
2.0782662e-05
1.9327456e-05
2.0368295e-05
1.9677166e-05
2.0186889e-05
7.6390165e-05
2.1073506e-05
2.0711652e-05
2.0238382e-05
2.0181563e-05
2.5806758e-05
1.7191006e-05
2.0128486e-05
1.9185157e-05
1.9333216e-05
2.0648757e-05
2.0056176e-05
2.010044e-05
1.8874512e-05
1.9089016e-05
2.1022905e-05
2.0034029e-05
2.0056338e-05
1.8412792e-05
1.9300495e-05
1.9717757e-05
1.9204897e-05
1.9372251e-05
2.0878771e-05
2.0266361e-05
2.0314629e-05
2.0920586e-05
2.0379709e-05
2.0348144e-05
2.0957048e-05
2.0410319e-05
2.0421125e-05
2.1719995e-05
2.007761e-05
0.0011796022
0.0010392294
0.00060619365
0.0011313611
7.2261232e-05
7.1258998e-05
2.0887523e-05
7.0568942e-05
2.0907251e-05
1.8540339e-05
1.8552663e-05
1.857587e-05
2.1383767e-05
1.8924113e-05
1.8506699e-05
1.8549211e-05
7.5794895e-05
1.4869155e-05
7.2717408e-05
1.9899277e-05
1.9920643e-05
7.2051955e-05
1.9881924e-05
1.497423e-05
1.5002034e-05
6.7018268e-06
1.0793274e-05
7.0463738e-05
1.9845705e-05
1.9583305e-05
2.1005713e-05
2.2360938e-05
2.0024345e-05
1.4925052e-05
1.4853691e-05
7.4809947e-05
2.2528572e-05
1.8410185e-05
1.6350263e-05
1.4972113e-05
1.4928495e-05
1.8484606e-05
1.6463813e-05
1.641534e-05
1.5000085e-05
1.5010156e-05
1.6471946e-05
1.8582085e-05
1.6499167e-05
1.649482e-05
1.8589871e-05
1.6506568e-05
2.9244815e-05
1.9820457e-05
1.8614288e-05
1.4348704e-05
1.3559133e-05
1.9541354e-05
1.6527055e-05
1.7030995e-05
1.4614293e-05
1.4755992e-05
1.6427536e-05
1.8452718e-05
1.6374293e-05
1.6354632e-05
1.8433002e-05
1.6334954e-05
7.5589491e-05
7.6244552e-05
1.9929061e-05
2.2324596e-05
2.2381932e-05
1.9936842e-05
2.2374494e-05
2.2394749e-05
1.9741286e-05
2.2159103e-05
1.9821706e-05
2.2326829e-05
2.2245988e-05
1.9766773e-05
2.2261374e-05
2.2032443e-05
1.9550101e-05
1.97184e-05
2.1699771e-05
2.0498311e-05
2.2650789e-05
2.0893591e-05
2.0112558e-05
2.3069011e-05
2.1187581e-05
2.0865808e-05
2.0377961e-05
2.032828e-05
2.0868994e-05
2.0129409e-05
2.0233732e-05
2.0939261e-05
2.0386456e-05
2.0410741e-05
2.117575e-05
2.0103404e-05
2.1002119e-05
2.1212085e-05
2.0461579e-05
2.1137508e-05
0.0012741066
0.0022787342
0.00045934427
0.0013245657
0.0018044385
0.00072499711
0.00038025094
0.00075713687
0.0023460252
0.00050805709
0.00011924728
0.00016892752
0.00010173424
0.00080870019
0.00014756555
0.00043597138
0.00040351692
8.7632508e-05
0.00031125869
8.1997905e-05
8.594145e-05
6.3640198e-05
3.4715799e-05
4.4057039e-05
3.2185774e-05
3.1018334e-05
4.5527084e-05
0.0030316571
0.0022400823
0.0062927156
0.0021667001
0.0066294613
0.0024298965
0.00018272313
0.0001857238
0.00021226971
7.0996208e-05
8.8431292e-05
4.7972484e-05
0.00010285013
9.9251432e-05
0.00018269686
9.1552403e-05
0.00021215607
0.00021912831
0.00034163008
0.000332601
0.00022272299
4.3048668e-05
4.2924426e-05
4.2096058e-05
4.2787729e-05
8.3288278e-05
6.332446e-05
7.4684147e-05
5.7203468e-05
5.9075806e-05
7.0746456e-05
4.177908e-05
4.0603004e-05
5.3007296e-05
3.4458211e-05
4.0450431e-05
9.2989045e-05
0.00010376188
0.00010321323
0.00010262605
5.6209855e-05
4.6206398e-05
4.3010838e-05
4.4013939e-05
4.5867837e-05
6.0197861e-05
7.492742e-05
9.7564449e-05
8.0719264e-05
4.3196345e-05
0.00018526957
4.3946096e-05
0.00018660687
4.4178881e-05
4.4092021e-05
5.5986401e-05
4.373982e-05
4.5156711e-05
0.00029436411
9.5557291e-05
8.0393273e-05
6.0478617e-05
0.00024596971
7.5338176e-05
4.3057573e-05
4.3013303e-05
4.2371957e-05
4.2603071e-05
4.1407083e-05
4.0991941e-05
6.0301395e-05
5.2866317e-05
5.6598331e-05
4.9960946e-05
5.0476775e-05
5.3603677e-05
4.3048738e-05
4.329416e-05
6.4652042e-05
6.4681735e-05
6.9493469e-05
6.9597832e-05
8.0518444e-05
7.477605e-05
0.0001089762
9.3948517e-05
0.00010220174
8.6820694e-05
8.7181542e-05
9.3996117e-05
0.00024463495
0.00019587836
0.00022639939
0.00025082796
0.00022270453
0.00025839737
0.00022442727
0.0002555156
0.00026057981
4.8614941e-05
3.997465e-05
4.2912231e-05
4.3497193e-05
5.1337888e-05
5.17553e-05
4.3747189e-05
5.2314264e-05
5.2053593e-05
4.4229381e-05
5.2292531e-05
5.2643514e-05
4.4189852e-05
5.2492229e-05
5.2601163e-05
5.2483462e-05
5.9157039e-05
5.0505318e-05
4.3690634e-05
5.1547275e-05
4.6762032e-05
4.9646485e-05
4.4339791e-05
5.3925492e-05
9.4270351e-05
9.3142118e-05
0.00010114262
8.635779e-05
8.5706789e-05
8.343764e-05
6.5027723e-05
6.4020918e-05
6.9361052e-05
7.0000997e-05
8.0520007e-05
7.4514031e-05
7.2697324e-05
0.00011103827
0.00017778275
4.4818714e-05
0.00011623226
9.155473e-05
3.6310491e-05
4.0330624e-05
0.00010438231
0.00010491667
4.2836022e-05
0.00016927222
4.0747557e-05
0.00028300133
8.4502009e-05
0.0002557796
9.0454033e-05
4.8257378e-05
4.0422425e-05
0.00014654617
6.8165292e-05
9.7987953e-05
4.5983131e-05
4.1930018e-05
4.3361409e-05
0.00010391641
8.0897169e-05
7.1780708e-05
7.5308447e-05
4.9116101e-05
5.1399257e-05
5.2605202e-05
0.00010283725
0.00010020312
9.4845907e-05
0.00025609674
0.000301113
0.00025048032
9.4361781e-05
0.0002982331
9.4614769e-05
3.8982125e-05
3.970364e-05
4.1276881e-05
0.00010203999
6.780398e-05
6.4897398e-05
6.9806532e-05
5.5099912e-05
6.0494871e-05
5.6405394e-05
0.00011616471
0.00011432465
8.9371637e-05
9.297182e-05
9.263096e-05
9.3750201e-05
9.5309588e-05
8.8475674e-05
4.2356684e-05
5.089809e-05
4.9966317e-05
4.1448498e-05
4.3218225e-05
4.8624028e-05
4.7673914e-05
4.5311816e-05
4.4904308e-05
8.1787669e-05
8.8586204e-05
7.824342e-05
7.2584636e-05
6.7268656e-05
7.2183628e-05
8.6541246e-05
7.9596556e-05
8.9780002e-05
5.1329839e-05
6.1803414e-05
5.5008487e-05
6.6172031e-05
6.3251234e-05
5.9002083e-05
9.2548605e-05
9.9091786e-05
9.7258118e-05
9.1151197e-05
9.8604379e-05
9.5795442e-05
0.00021756334
0.0001235441
0.00011467703
4.3978446e-05
0.00025142756
0.00064161091
4.2505665e-05
0.00037305756
0.00021296258
3.3826735e-05
8.6716998e-05
0.0001091498
0.00048979128
0.00018830071
2.1602231e-05
7.0728767e-05
1.900321e-05
0.00011435511
4.3076971e-05
3.8515254e-05
0.00014284717
6.5965934e-05
3.6724379e-05
2.13287e-05
0.00020234791
6.2061215e-05
5.3166945e-05
0.00033029615
0.00027077941
0.00016877539
0.00020510849
0.00022747807
0.00079561471
0.0052134086
0.00017627541
0.00020462178
0.00028160528
0.0018012319
0.0054148651
0.00037185592
0.00023308144
0.00072722093
0.00020835311
0.0017985501
0.00033424546
0.0019647638
0.0017320949
0.00070347107
0.0020861583
0.00034834425
0.00024333449
0.00019719508
0.00013397354
0.00017068666
5.8713239e-05
6.481344e-05
7.2463005e-05
7.7528729e-05
8.1932131e-05
8.4108863e-05
8.550806e-05
0.008826676
4.5667324e-05
0.00018682626
0.00010616759
4.8832514e-05
0.00021290613
9.3335923e-05
0.00017594936
0.00022880334
0.00013955167
0.0005940158
0.00017633901
0.00021471389
0.00020045634
0.00010434557
0.00022968202
0.00060199539
0.00021834559
0.0001068926
0.00021502772
0.00021836497
0.00010542957
5.4834912e-05
5.8589193e-05
6.0387388e-05
6.5307253e-05
0.00010197541
6.5238355e-05
8.165753e-05
4.5257021e-05
3.7236351e-05
0.00016522067
0.0001668783
0.00017577274
0.00022094593
0.0001760644
0.00021149812
0.00020631218
0.00018491389
0.00017433187
0.00010105731
6.7439964e-05
4.8417195e-05
6.0846583e-05
0.00018882718
0.00019228331
0.00017356044
8.5116741e-05
0.00010289095
7.3075401e-05
4.8932224e-05
3.5957484e-05
3.3704593e-05
0.00059421511
0.00017556849
0.00020611871
0.00020333761
0.00018671453
2.9717304e-05
4.4069747e-05
5.2367919e-05
0.00022869185
6.4902585e-05
3.8391079e-05
4.1022373e-05
0.00010096897
8.23555e-05
7.2195555e-05
8.5689991e-05
0.00010782682
8.646003e-05
0.00023744527
0.00021949413
0.00024171578
0.0002406257
0.00021999552
0.00024224624
0.00010760849
8.4382605e-05
8.6386555e-05
2.9688107e-05
3.1619075e-05
3.985886e-05
4.2363652e-05
3.7333528e-05
3.284889e-05
3.9697806e-05
3.5002779e-05
0.00028175997
0.00019809117
0.00021739089
0.00019513915
0.00019555708
0.00020835159
0.00018402556
4.9801831e-05
5.105959e-05
0.00013550341
8.4691929e-05
7.7997771e-05
5.8134158e-05
7.6073264e-05
6.5261242e-05
4.6874732e-05
4.3861099e-05
4.2607001e-05
5.1905287e-05
4.5630399e-05
5.304574e-05
5.5898459e-05
4.903584e-05
0.00023536457
0.00019795671
0.00022622425
0.000640765
0.00055553601
0.00061652802
0.00059163296
0.0006193129
0.00063836731
0.00065020359
0.00059997282
0.0006478358
0.00019335428
0.00019378844
4.5772853e-05
5.5459308e-05
5.1742969e-05
0.00016644165
0.00017058193
0.00017816698
0.00019593721
0.00020556279
0.00019586442
5.6118178e-05
5.9219084e-05
6.3257646e-05
5.9859613e-05
6.5860229e-05
6.6965542e-05
8.0903034e-05
8.2247928e-05
8.3449063e-05
0.00022039055
0.00022346133
0.00018945434
4.6585155e-05
4.2758466e-05
4.3586878e-05
0.00010519733
0.00022746417
0.00021141998
9.315132e-05
9.2279973e-05
0.00021006725
4.9864174e-05
5.2294578e-05
5.3470376e-05
0.00014273454
0.00014845213
0.00015185282
0.00012322612
0.00025451764
7.1657749e-05
0.00017753146
8.6253227e-05
0.00020153459
0.00021114974
0.00010308461
0.00019860092
9.1721359e-05
0.00019607065
9.0537615e-05
0.00022107634
0.00022844476
0.00021964464
0.00022676209
0.00020891606
0.0002181
0.00010402761
0.00022570447
8.9982076e-05
0.00020564277
9.1098511e-05
0.0002079781
5.6113407e-05
6.2428066e-05
5.7539846e-05
0.00015760109
0.00017079873
0.00016114943
0.00010213794
0.00021903629
8.8848119e-05
0.00020322363
8.7646643e-05
0.00020122851
7.0193965e-05
6.869549e-05
7.680031e-05
0.00018315767
0.00018103664
0.00019173696
0.00020806565
0.0001017869
0.00019527241
8.740435e-05
0.00019467405
8.9059604e-05
0.00022993126
0.00010747782
0.00021200788
9.3685865e-05
9.4165356e-05
0.00021212382
0.00022166225
0.00010640931
0.00020158013
9.262643e-05
9.3431353e-05
0.00020450862
0.0001077892
0.00022951296
9.4473451e-05
9.4422119e-05
0.00021065483
0.00021167031
0.00010713886
0.00022449206
9.4324531e-05
9.3978062e-05
0.00020909573
0.00020702774
4.8971049e-05
5.1136506e-05
4.578689e-05
0.00021412943
0.00021733325
0.00021249866
8.8396169e-05
8.3682596e-05
8.746601e-05
8.4031075e-05
8.1551083e-05
8.5570451e-05
0.00020466039
0.00021219501
0.00020829606
5.2442024e-05
6.2630222e-05
5.6230074e-05
6.6345645e-05
6.50007e-05
5.9993889e-05
0.00014882623
0.00017613525
0.00015834628
0.00018383645
0.00017561474
0.00016642782
8.2947075e-05
7.2162428e-05
8.0762947e-05
0.00020219248
0.00018706342
0.00019778832
0.00019928304
0.00018241373
0.00019619571
8.6299638e-05
7.3762737e-05
8.4758904e-05
0.00021473582
0.0002212458
0.00021476669
8.8972591e-05
8.6146744e-05
8.9371166e-05
0.00022074156
0.00021322571
0.00021426385
8.6376008e-05
8.9676253e-05
8.960968e-05
0.00020403039
0.0002133198
0.00020707712
8.8026013e-05
8.566482e-05
8.880831e-05
0.00021165644
0.00021584329
0.000209602
8.9568911e-05
8.6088529e-05
8.928719e-05
0.00061792926
0.0016027654
0.0020557509
6.8525972e-05
2.777813e-05
4.8074924e-05
0.00011591119
0.00054193512
0.00024824934
6.4628514e-05
7.6261945e-05
0.00068196599
9.1402191e-05
4.423453e-05
5.958641e-05
0.00010552639
7.5436728e-05
3.6953972e-05
4.8074782e-05
4.6412921e-05
2.7349929e-05
0.00012611404
2.9451027e-05
1.2059623e-05
0.00011029862
1.7238286e-05
2.7771242e-05
0.00011930441
0.00010462946
0.00011278693
0.00011151284
3.7608978e-05
4.4829684e-05
3.4892107e-05
3.532594e-05
4.2145394e-05
1.4138863e-05
1.452495e-05
1.6922313e-05
2.2105808e-05
2.5745432e-05
3.2913042e-05
2.3391952e-05
2.4166139e-05
2.9090234e-05
3.4959034e-05
2.7409595e-05
2.2931911e-05
2.1575688e-05
0.00012953013
0.00012752318
0.00014327168
0.00011761361
0.00013341406
0.00016327626
0.00015185571
9.315791e-05
0.00010318206
8.9487959e-05
2.326756e-05
2.4698104e-05
0.00015403319
4.0190609e-05
3.1345188e-05
0.00013534931
3.7715653e-05
2.1938596e-05
2.0700497e-05
2.2779569e-05
2.9514125e-05
9.0713622e-05
2.4206857e-05
1.5176178e-05
9.4943939e-05
0.00011352941
9.5486415e-05
2.6843758e-05
9.4163629e-05
0.00011343148
9.5466268e-05
2.5707018e-05
3.0900081e-05
2.7295687e-05
2.7897617e-05
2.6238156e-05
3.2852556e-05
3.0854235e-05
2.9007614e-05
2.423256e-05
2.5831969e-05
2.2859287e-05
1.8462731e-05
1.9545802e-05
2.4339537e-05
2.0350274e-05
2.157296e-05
1.7434271e-05
1.641986e-05
1.915393e-05
2.0227734e-05
1.7939348e-05
0.00014730152
0.00013046804
0.00014842367
0.00014488293
0.00013028318
0.00014816349
0.00016509139
0.00016895473
0.00016798342
0.00016929555
4.286976e-05
4.5385022e-05
4.8553403e-05
3.3308727e-05
3.5317995e-05
3.7653319e-05
3.5426538e-05
4.2671008e-05
3.9971798e-05
2.60092e-05
2.7761778e-05
3.3308294e-05
3.104192e-05
2.5869193e-05
2.4427583e-05
2.883775e-05
2.6732854e-05
1.729493e-05
2.292344e-05
2.992728e-05
3.1261665e-05
3.1781534e-05
1.6699909e-05
1.9547805e-05
1.9340349e-05
1.9484896e-05
2.8207153e-05
2.6209297e-05
2.6594452e-05
4.0079261e-05
3.8292036e-05
4.0830539e-05
3.321607e-05
3.5948465e-05
3.3784471e-05
1.6762276e-05
1.9553222e-05
1.9405292e-05
2.0879927e-05
2.2274216e-05
2.0906045e-05
1.8160245e-05
1.979102e-05
1.9767271e-05
2.4754254e-05
2.3643954e-05
2.507251e-05
1.3336625e-05
1.3875731e-05
4.7969143e-05
4.0180816e-05
4.2868639e-05
3.1346269e-05
3.7192999e-05
3.3303528e-05
3.9480283e-05
3.7704128e-05
3.5416773e-05
2.1534611e-05
2.2830436e-05
2.1252005e-05
2.2510295e-05
2.635629e-05
2.2357738e-05
2.1681614e-05
2.5739611e-05
2.197427e-05
2.9523251e-05
3.0681571e-05
2.7779127e-05
2.8508644e-05
2.4249628e-05
2.5898347e-05
2.3245495e-05
2.6938388e-05
2.6991768e-05
0.019174153
0.013902994
0.019024416
0.00098172639
0.023027772
0.0017033836
0.0023933539
0.00022863321
0.00042100623
0.00067396669
0.00013720794
0.00037670038
0.00019912337
0.00092613947
0.00011994806
0.00017828403
4.9122614e-05
6.5904145e-05
0.0061014824
0.016511046
0.016711385
0.00049010093
0.00051304663
0.00046946102
0.00053590593
0.0005754079
0.00011246499
0.00011177182
0.00010798628
0.00011110482
0.00011224364
0.00011009591
0.00015329004
0.00010714512
0.00011966269
0.00010862069
0.00010676646
0.00010670464
0.00013726101
0.00011679292
0.00014595924
0.00050434315
0.00012054909
0.0001242741
0.00012583708
0.0005112621
0.0001250458
0.00012554594
0.00048546736
0.00012075291
0.00011802917
0.00013890686
0.00011736265
0.0001491141
0.00011268446
0.00011245793
0.0001126735
0.00011222563
0.0001120112
0.00011244811
0.00010832497
0.00010918961
0.00010949717
0.00011136572
0.00011023569
0.00011052212
0.00011248455
0.00011174206
0.00011208527
0.00011097485
0.00011085064
0.00011151387
0.00010707993
0.00010590453
0.00010591932
0.00010554973
0.0001057781
0.00010516181
0.00014487657
0.0001294377
0.00013643774
0.0001231192
0.00012277885
0.00012910897
0.0001539848
0.00015507238
0.00016355966
0.00016445141
0.00017353862
0.00012205119
0.00013849198
0.00014117352
0.00012327508
0.00014391521
0.00014262068
0.0001258345
0.00014566713
0.00014575319
0.0001255681
0.00014480416
0.00014544443
0.00012477646
0.00014529083
0.00014339552
0.00012257961
0.0001246532
0.0001400737
0.00011660803
0.00013493537
0.0001207572
0.00013043977
0.00014902801
0.00012714607
0.00011695505
0.00012414945
0.00013699869
0.00015845781
0.00016040693
0.00017080702
0.00013098381
0.00050583085
9.4684343e-05
0.00010923507
0.00010005597
0.00010907382
0.00013259827
0.00011034014
0.00010862348
0.0001108103
0.00010863793
0.0001166258
0.00015908774
0.00013395679
0.0001228408
0.00012596673
0.000115167
0.00011346558
0.00011911154
0.00013838578
0.00013033898
0.00012969206
0.00013996895
0.00011724096
0.00012335117
0.005639561
0.010878235
0.0021798024
0.20330901
0.025421257
0.017570928
0.00088215699
0.0049356105
0.013880525
0.0019376283
0.00037270788
0.0023301109
0.0016860443
0.0013662079
0.0014646105
0.001799537
0.0053896481
0.0025055289
0.00030167335
0.0018217186
0.0014300635
0.00064149649
0.035631767
0.0014075809
0.0024288031
0.0042645436
0.074051359
0.064099092
0.0010544672
0.0017372345
0.0022243515
0.0016142749
0.0015439995
0.0027705948
0.0022982843
0.0010086628
0.0018461984
0.0013986762
0.0024352874
0.0027170942
0.0022099158
0.0031716499
0.002570593
0.0014673585
0.0035289505
0.0040921197
0.0008873764
0.00061974962
0.0018226774
0.00089732515
0.0029121656
0.0023653198
0.0017020694
0.00086016012
0.0015315498
0.0011425618
0.0030998763
0.00085684341
0.0026810171
0.011103946
0.035593497
0.017006522
0.0037382244
0.0030711748
0.0018552379
0.0022394379
0.00099858956
0.0018689415
0.0021175728
0.00098789924
0.0011117401
0.00066905696
0.0018294817
0.00020498343
0.00021176745
0.00010339144
0.00060753933
0.00095765708
0.00010550422
0.0001242754
0.00094989589
0.00020733778
0.00012479766
9.4068229e-05
0.00014087379
0.00092637861
4.2834546e-05
7.7069386e-05
3.6647034e-05
5.128634e-05
5.2431645e-05
5.3580617e-05
0.012769683
5.4715607e-05
6.3033121e-05
8.8399342e-05
5.5284293e-05
5.2223212e-05
5.2736529e-05
6.3876155e-05
6.6296403e-05
6.7367403e-05
8.1385383e-05
8.9326372e-05
8.4328328e-05
4.6883378e-05
5.4524823e-05
5.7551018e-05
8.3977347e-05
7.210912e-05
9.3209549e-05
9.4933252e-05
9.6175322e-05
9.5293785e-05
9.2284946e-05
9.4087358e-05
9.1684942e-05
9.6394341e-05
9.1796653e-05
9.0992565e-05
9.5858217e-05
9.1377163e-05
4.2422563e-05
4.9143777e-05
4.7865471e-05
5.1634416e-05
5.6806678e-05
0.00010046041
0.00010430733
8.6598734e-05
0.00010092901
8.7678206e-05
8.7637543e-05
8.8851189e-05
8.8560674e-05
0.00010456373
0.00010995714
5.6680596e-05
5.9344102e-05
0.00018797064
0.00022555391
0.00010497847
0.00019143414
0.00018810118
9.0887192e-05
9.4677938e-05
0.00019071215
9.2796185e-05
0.00010452655
0.000106594
5.7939659e-05
4.9367442e-05
5.0212204e-05
6.081858e-05
6.8283393e-05
7.2414774e-05
0.000224917
0.00010774526
0.00010589871
0.00010428607
7.1758302e-05
9.9910168e-05
7.8618596e-05
5.5021759e-05
5.7872289e-05
6.9311649e-05
0.00010524095
7.5494943e-05
5.7331671e-05
5.4131352e-05
6.0086981e-05
6.2141005e-05
0.00021673058
5.3031822e-05
0.00021823649
0.00011025488
7.1419147e-05
5.582768e-05
0.00015256352
0.00010449386
0.00010835927
0.00010909608
7.0012306e-05
5.4355845e-05
5.7116198e-05
0.00015151749
0.00010459786
0.00010913385
0.00011281707
0.00010375475
7.0990421e-05
7.410333e-05
0.00012144273
0.00011204613
0.00010068636
7.9150401e-05
0.00011314222
0.00010461308
7.8512277e-05
5.7964641e-05
5.5228631e-05
5.1695217e-05
4.9845525e-05
5.2657004e-05
5.0310408e-05
6.080423e-05
6.3990754e-05
6.509959e-05
7.0145446e-05
6.7716644e-05
7.1652226e-05
0.00021801463
7.1345765e-05
8.5632585e-05
0.00010789558
8.3073906e-05
8.4922043e-05
0.00010765451
8.296954e-05
7.4930782e-05
7.5066209e-05
0.00010031858
9.0271866e-05
7.7312526e-05
8.5948434e-05
4.9259404e-05
5.235203e-05
5.1792314e-05
6.1018072e-05
6.4697929e-05
6.1087578e-05
0.0001429566
9.0635478e-05
6.5627394e-05
8.3434562e-05
0.00010364862
9.4044126e-05
0.00010616653
9.5550303e-05
0.00010623923
9.5887922e-05
0.0001050689
9.4676686e-05
0.0001018969
9.1279119e-05
0.0001049319
9.2943015e-05
9.0888883e-05
8.2062436e-05
0.00010761619
9.6373168e-05
8.2858088e-05
9.1780348e-05
8.9949329e-05
8.1557676e-05
0.00010689793
9.6192815e-05
8.2546625e-05
9.1639856e-05
4.454273e-05
4.6779975e-05
3.2327589e-05
5.4200545e-05
5.6525987e-05
0.00022780388
5.0433059e-05
9.4004674e-05
6.7778599e-05
7.0894608e-05
0.00011075256
5.8973039e-05
9.8503797e-05
6.3517681e-05
5.1769326e-05
4.9329931e-05
6.0206482e-05
9.9109655e-05
6.4662434e-05
8.8445296e-05
8.7139753e-05
8.3783411e-05
8.9567938e-05
0.0001138003
8.7270206e-05
8.4072888e-05
6.7437783e-05
7.0675673e-05
0.0001106759
0.0006210374
0.00050564747
0.00049528024
0.00028861116
6.0379916e-05
9.6577759e-05
0.00032414218
0.00027606422
3.166949e-05
4.4644826e-05
4.0416e-05
4.7144077e-05
4.5025657e-05
4.7578973e-05
4.8002284e-05
0.023374341
0.00093425458
0.0014912253
0.00091551721
0.0012472051
0.00085654065
0.00055547227
0.00048078313
0.00034360998
0.00051598958
0.0005615694
0.007121625
0.0055289428
0.0056418082
0.0048665992
0.0014559381
0.001138564
0.00096679092
0.0012949267
0.00083178748
0.00038116048
0.00093501688
0.00025448654
0.00081936756
0.00023063225
0.0010311995
)


2787
(
7.5143295e-05
2.6605397e-05
0.0018573717
0.0017656381
0.00028117287
0.00016477641
0.00017403213
8.0412822e-05
0.00015035789
9.2391273e-05
2.7395003e-05
1.207249e-05
6.0568921e-05
3.5583981e-05
3.1735811e-05
8.2008383e-05
1.6651152e-05
6.4123378e-05
1.5536415e-05
2.1458928e-05
3.9922173e-05
7.5473867e-06
9.2313334e-06
1.6095276e-05
7.9223464e-06
4.8173978e-06
4.7012888e-06
5.3700411e-06
5.9814294e-06
3.7793335e-06
4.5040699e-06
0.00011408247
0.00033369271
7.2860199e-05
7.6720205e-07
6.0938265e-07
4.514506e-07
4.7396645e-07
4.3031079e-07
5.5594273e-07
5.8879513e-07
5.250631e-07
4.9821612e-07
5.2326723e-06
3.4911574e-06
1.4323044e-05
4.1755492e-06
1.3271668e-05
1.2966558e-05
1.4535484e-05
5.5333087e-06
1.3195462e-05
5.2754912e-06
1.5034012e-05
1.4635865e-05
5.5053453e-06
4.0389378e-06
3.999872e-06
4.1086751e-06
5.0824443e-06
4.1846986e-06
4.8980795e-06
3.1254163e-06
3.1735909e-06
3.2275669e-06
3.1877859e-06
3.1073954e-06
3.0438027e-06
3.8206972e-06
2.9341153e-06
3.2193101e-06
5.9204632e-06
5.3230406e-06
4.367859e-06
5.0478556e-06
3.5868488e-06
3.2448621e-06
3.4420918e-06
4.1726624e-06
3.7679813e-06
4.6472767e-07
6.2058822e-07
6.2529723e-07
1.3250363e-05
3.5021022e-06
3.4611177e-06
3.3914174e-06
1.3125324e-05
3.4452754e-06
3.3704837e-06
1.2176914e-05
3.2388305e-06
1.5723662e-05
4.3350828e-06
4.9305954e-06
5.7395926e-06
5.2577358e-06
5.2105e-06
3.4888022e-06
4.1054747e-06
3.6928772e-06
4.1054006e-07
6.9382083e-07
5.1093717e-07
6.8248579e-07
3.2369494e-06
3.1424603e-06
3.2539817e-06
3.1585079e-06
3.2854049e-06
3.2701484e-06
3.3388747e-06
3.2143421e-06
3.3259047e-06
3.2996865e-06
3.2012066e-06
3.3130998e-06
3.21914e-06
3.0869662e-06
3.2008713e-06
3.0644018e-06
3.1673953e-06
3.1829118e-06
8.4008689e-06
5.6799817e-06
6.4653733e-06
5.5995746e-06
5.8300338e-06
6.1965028e-06
4.7584043e-06
4.578592e-06
4.9905877e-06
5.5144656e-06
4.8021677e-06
5.2406601e-06
3.3540743e-06
3.2778998e-06
3.37636e-06
3.4992359e-06
3.3395358e-06
3.4162444e-06
3.7164445e-07
3.9213443e-07
4.5441962e-06
4.0056645e-06
4.3526999e-06
4.0854501e-06
3.8757321e-06
4.1972538e-06
1.4998122e-05
1.3388955e-05
1.4420588e-05
5.5750836e-07
1.4977769e-05
1.575569e-05
1.5715298e-05
1.5348816e-05
1.4826433e-05
1.555299e-05
3.7078965e-07
5.7805108e-07
4.8177582e-07
6.1364326e-07
4.8726861e-07
3.4905464e-06
3.9136087e-06
3.9228072e-06
3.4763171e-06
3.891161e-06
3.9077954e-06
3.4104832e-06
3.808244e-06
3.8332954e-06
3.428393e-06
3.8735596e-06
3.853169e-06
3.3427676e-06
3.7839743e-06
3.7267844e-06
3.2830637e-06
3.2485882e-06
3.6403016e-06
4.5420544e-06
4.5368122e-06
4.7578587e-06
4.7162446e-06
4.6582581e-06
4.9059995e-06
5.4489485e-06
5.5727492e-06
5.2946019e-06
3.5127685e-06
3.8795587e-06
3.5442531e-06
3.9278893e-06
4.2854147e-06
3.7313743e-06
3.5969513e-06
3.8170608e-06
4.1049333e-06
5.3436261e-07
6.3372423e-07
7.3516062e-07
6.748408e-07
7.1035252e-07
3.3410994e-06
1.268296e-05
2.6639736e-06
3.0283985e-06
5.0840936e-06
5.1152247e-06
4.3684927e-06
2.9092112e-06
3.0534108e-06
3.8396707e-06
3.161119e-06
3.024209e-06
3.1875972e-06
3.6805527e-06
3.953909e-06
5.5403925e-06
3.3856971e-06
3.2018697e-06
3.2547926e-06
5.1916332e-06
4.8298374e-06
4.7891888e-06
3.5368825e-06
3.6513249e-06
3.6982069e-06
5.9586659e-06
4.1918616e-06
4.7057555e-06
5.5726977e-06
5.1065629e-06
5.1621311e-06
5.120974e-06
5.389174e-06
5.2228651e-06
5.4217011e-06
5.2954567e-06
5.250952e-06
3.0739684e-06
3.0855073e-06
3.1536099e-06
5.1530561e-06
4.7012057e-06
4.7427185e-06
3.8211518e-06
4.0511103e-06
3.8675646e-06
5.0747371e-06
4.6680908e-06
4.6548322e-06
4.3312179e-06
4.2567796e-06
4.4842343e-06
5.6347339e-06
5.4270125e-06
5.2594917e-06
5.3163192e-06
4.8642198e-06
4.8990543e-06
5.4793666e-06
5.0723907e-06
5.046247e-06
5.3541729e-06
4.9630293e-06
4.9320163e-06
5.451796e-06
4.9921262e-06
5.0196102e-06
6.8595846e-07
4.4763178e-07
3.1946046e-07
3.3568891e-07
3.7739787e-07
3.6311749e-07
4.7449125e-07
3.4126863e-07
3.4881795e-07
3.544606e-07
3.4713406e-06
3.323247e-06
3.326964e-06
3.6574153e-06
3.1689433e-06
3.2437899e-06
6.6008033e-07
7.3055489e-07
7.0339729e-07
4.9047017e-06
5.0026437e-06
4.8573148e-06
4.6899389e-06
4.8843439e-06
4.7620141e-06
3.6593217e-06
4.2274189e-06
3.8255006e-06
4.3489506e-06
4.1303965e-06
3.9614735e-06
4.6546765e-06
4.3603011e-06
4.5843251e-06
5.1297006e-06
4.8237614e-06
5.1692507e-06
4.939846e-06
5.1593935e-06
4.9729666e-06
5.190625e-06
5.0355222e-06
5.0049346e-06
5.1416181e-06
5.3022077e-06
5.1185773e-06
5.0643836e-06
5.2778477e-06
5.0921843e-06
2.9011751e-05
2.5720924e-05
2.0207618e-05
7.7964174e-05
6.7125912e-05
1.0931915e-05
4.2215712e-05
2.7231847e-05
1.1705588e-05
7.6969082e-06
8.1250034e-06
1.7536142e-05
1.6461772e-05
1.7665092e-05
1.5539847e-05
1.7136021e-05
1.5406735e-05
1.6617412e-05
1.720238e-05
1.7164722e-05
1.6786361e-05
6.5447824e-05
1.7323236e-05
1.8045857e-05
1.7716269e-05
1.7867205e-05
1.7692117e-05
1.8151312e-05
1.8103158e-05
7.1168084e-05
6.475752e-05
1.7564349e-05
1.7072499e-05
1.7430792e-05
1.7138769e-05
1.6933514e-05
1.7284774e-05
1.7683945e-05
1.7446762e-05
1.7802142e-05
1.7574178e-05
1.8051695e-05
1.7917186e-05
1.6979918e-05
1.6383413e-05
1.6753551e-05