/*--------------------------------*- C++ -*----------------------------------*\
  =========                 |
  \\      /  F ield         | OpenFOAM: The Open Source CFD Toolbox
   \\    /   O peration     | Website:  https://openfoam.org
    \\  /    A nd           | Version:  8
     \\/     M anipulation  |
\*---------------------------------------------------------------------------*/
/*   Windows 32 and 64 bit porting by blueCAPE: http://www.bluecape.com.pt   *\
|  Based on Windows porting (2.0.x v4) by Symscape: http://www.symscape.com   |
\*---------------------------------------------------------------------------*/
FoamFile
{
    version     2.0;
    format      ascii;
    class       labelListList;
    location    "constant/vegetation";
    object      finalAgglom;
}
// * * * * * * * * * * * * * * * * * * * * * * * * * * * * * * * * * * * * * //


15
(
0()
0()

32
(
0
1
0
1
2
2
1
0
2
0
2
2
2
2
0
0
2
1
0
1
2
2
2
0
0
0
0
2
2
1
1
1
)

0()

115
(
0
0
1
2
3
4
2
4
3
2
5
1
6
7
8
9
10
0
5
2
11
12
11
13
14
6
11
14
13
9
8
11
15
16
17
10
3
1
1
5
6
7
17
18
16
17
8
19
19
2
20
20
20
21
21
20
6
22
22
16
16
8
22
22
14
8
21
21
10
4
4
4
22
22
2
9
9
3
19
19
1
1
1
7
18
18
10
17
17
5
19
0
15
15
15
18
18
7
2
2
10
10
10
12
12
12
13
22
13
14
21
14
8
16
16
)


24
(
0
1
0
1
1
1
1
1
1
0
1
1
1
1
0
0
0
0
1
1
1
1
0
1
)

0()

415
(
0
1
2
3
4
4
5
6
5
7
7
8
4
9
10
11
10
11
6
9
12
12
13
14
14
15
15
16
17
18
19
18
19
20
21
21
22
23
22
23
24
24
23
22
0
0
3
19
23
23
18
1
18
1
0
1
1
1
25
13
2
2
2
2
26
22
27
22
4
28
28
28
28
4
5
29
5
6
6
5
5
7
7
7
7
8
8
4
4
4
9
30
30
30
30
10
10
30
30
30
28
31
11
11
9
9
9
32
29
29
6
6
9
9
32
32
32
32
32
27
22
27
12
12
27
27
12
12
0
27
33
33
33
33
34
33
33
33
14
14
14
14
15
15
15
15
21
16
21
16
16
17
17
16
17
19
19
19
19
18
18
18
18
18
18
1
0
34
20
20
20
20
1
20
31
32
26
26
35
21
36
11
11
36
21
2
2
2
26
3
3
30
10
10
25
25
32
25
27
35
35
24
37
21
21
21
8
31
31
31
31
31
32
22
22
0
21
13
38
21
21
39
37
39
37
33
36
36
36
35
11
0
1
24
34
37
34
37
37
35
26
26
2
26
3
3
3
2
2
2
27
23
4
28
5
5
40
6
5
40
7
8
8
8
7
8
40
4
4
4
9
10
30
10
30
30
11
30
28
28
10
10
31
31
31
10
11
11
10
10
10
29
29
9
25
25
32
6
9
9
9
32
24
24
27
27
27
12
27
27
27
27
27
12
0
12
13
38
13
13
38
38
38
38
21
13
13
33
33
33
39
39
39
33
33
39
36
33
35
33
35
33
14
14
15
15
16
16
17
17
17
16
19
38
17
38
17
20
20
20
18
24
34
34
34
37
24
34
24
24
24
24
20
20
20
20
29
29
37
29
29
29
36
8
11
11
11
11
25
29
25
32
3
26
3
23
23
38
38
38
23
38
40
39
40
40
39
40
40
36
8
36
35
30
37
)


14
(
0
1
2
3
4
5
6
7
8
9
10
11
12
13
)


134
(
0
1
2
3
4
5
6
7
8
9
10
11
12
13
14
15
16
17
18
19
20
21
22
23
24
25
26
27
28
29
30
31
32
33
34
35
36
37
38
39
40
41
42
43
44
45
46
47
48
49
50
51
52
53
54
55
56
57
58
59
60
61
62
63
64
65
66
67
68
69
70
71
72
73
74
75
76
77
78
79
80
81
82
83
84
85
86
87
88
89
90
91
92
93
94
95
96
97
98
99
100
101
102
103
104
105
106
107
108
109
110
111
112
113
114
115
116
117
118
119
120
121
122
123
124
125
126
127
128
129
130
131
132
133
)

8(0 1 2 3 4 5 6 7)

12
(
0
1
2
3
4
5
6
7
8
9
10
11
)


206
(
0
1
2
3
4
5
6
7
8
9
10
11
12
13
14
15
16
17
18
19
20
21
22
23
24
25
26
27
28
29
30
31
32
33
34
35
36
37
38
39
40
41
42
43
44
45
46
47
48
49
50
51
52
53
54
55
56
57
58
59
60
61
62
63
64
65
66
67
68
69
70
71
72
73
74
75
76
77
78
79
80
81
82
83
84
85
86
87
88
89
90
91
92
93
94
95
96
97
98
99
100
101
102
103
104
105
106
107
108
109
110
111
112
113
114
115
116
117
118
119
120
121
122
123
124
125
126
127
128
129
130
131
132
133
134
135
136
137
138
139
140
141
142
143
144
145
146
147
148
149
150
151
152
153
154
155
156
157
158
159
160
161
162
163
164
165
166
167
168
169
170
171
172
173
174
175
176
177
178
179
180
181
182
183
184
185
186
187
188
189
190
191
192
193
194
195
196
197
198
199
200
201
202
203
204
205
)


195
(
0
1
2
3
4
5
6
7
8
9
10
11
12
13
14
15
16
17
18
19
20
21
22
23
24
25
26
27
28
29
30
31
32
33
34
35
36
37
38
39
40
41
42
43
44
45
46
47
48
49
50
51
52
53
54
55
56
57
58
59
60
61
62
63
64
65
66
67
68
69
70
71
72
73
74
75
76
77
78
79
80
81
82
83
84
85
86
87
88
89
90
91
92
93
94
95
96
97
98
99
100
101
102
103
104
105
106
107
108
109
110
111
112
113
114
115
116
117
118
119
120
121
122
123
124
125
126
127
128
129
130
131
132
133
134
135
136
137
138
139
140
141
142
143
144
145
146
147
148
149
150
151
152
153
154
155
156
157
158
159
160
161
162
163
164
165
166
167
168
169
170
171
172
173
174
175
176
177
178
179
180
181
182
183
184
185
186
187
188
189
190
191
192
193
194
)


126
(
0
1
2
3
4
5
6
7
8
9
10
11
12
13
14
15
16
17
18
19
20
21
22
23
24
25
26
27
28
29
30
31
32
33
34
35
36
37
38
39
40
41
42
43
44
45
46
47
48
49
50
51
52
53
54
55
56
57
58
59
60
61
62
63
64
65
66
67
68
69
70
71
72
73
74
75
76
77
78
79
80
81
82
83
84
85
86
87
88
89
90
91
92
93
94
95
96
97
98
99
100
101
102
103
104
105
106
107
108
109
110
111
112
113
114
115
116
117
118
119
120
121
122
123
124
125
)

)


// ************************************************************************* //
