/*--------------------------------*- C++ -*----------------------------------*\
  =========                 |
  \\      /  F ield         | OpenFOAM: The Open Source CFD Toolbox
   \\    /   O peration     | Website:  https://openfoam.org
    \\  /    A nd           | Version:  8
     \\/     M anipulation  |
\*---------------------------------------------------------------------------*/
/*   Windows 32 and 64 bit porting by blueCAPE: http://www.bluecape.com.pt   *\
|  Based on Windows porting (2.0.x v4) by Symscape: http://www.symscape.com   |
\*---------------------------------------------------------------------------*/
FoamFile
{
    version     2.0;
    format      ascii;
    class       scalarListList;
    location    "constant/vegetation";
    object      kcLAIboundary;
}
// * * * * * * * * * * * * * * * * * * * * * * * * * * * * * * * * * * * * * //


5
(

69
(
0
0
0
0
0
0.25777699
0.004705646
1.8440668
0
3.5417312
3.3916398
0
0
0.23618386
3.3375207
0.27290546
0.00016069414
0.033826421
3.1256437
0.0048107153
0.51656735
2.8321221
0
2.1941721
3.1311656
2.4858217
0
0
0.33682392
0.50418978
1.8093546
3.1199091
1.3635585
1.4363475
0.81278417
2.2912815
2.4201126
0.62119626
3.2781181
3.135169
0.463181
3.4168126
1.3715744
1.3034844
2.2039806
2.1232303
1.0758907
1.0543941
0.76610939
2.6565133
0.92087641
1.6487583
0.33695323
0.41978881
3.138359
0.62991877
2.5002813
0.90129267
2.1106005
2.9586556
0.31409204
0.99896351
0.51164343
1.5787706
2.433237
0.76766654
2.8174452
1.1953484
1.4446745
)


69
(
0
0
0
0
0
0.0056281267
0.028755671
1.1753132
0
3.3823488
2.0679406
0.5251388
0
0
3.3940318
0
0.24172838
0.78333111
2.1566223
0.66071923
0.14776868
1.9651237
0
0.086414147
3.2849401
0.26328887
0
0
0.15917235
0.19598961
1.2940035
2.1368837
1.0319585
1.4239029
0.82304808
1.898592
2.6917164
0.57840491
2.7208204
3.2387463
0.28287879
3.4072881
1.3986618
1.017776
2.0696867
1.4391308
0.52019177
0.37129743
0.55164472
2.7685877
0.49507809
0.85805963
0.36558181
0.52584958
2.6401801
0.2852709
1.5937
1.1185624
2.2235044
2.8560758
0.28440022
1.6022585
0.72912963
2.2924384
2.7176168
1.0459614
1.6132437
1.6610923
1.7524988
)


69
(
0
0
0
0
0
0
0.045323565
0.090451742
0
1.7855028
1.0883898
2.8742474
0
0.39756343
2.5747453
0
1.1404103
3.0682247
1000
1.9960813
0.0064180172
0.81097497
0
1000
2.2189935
0.96739567
0
0
0.12037455
0.17975794
0.76176207
1.3532434
0.58770605
1.24189
0.62018799
1.2505199
2.5311112
0.45846528
1.5680875
3.1773332
0.27000697
2.2994264
1.2050999
0.73349644
1.6531404
0.97488185
0.31800932
0.26438238
0.43746533
2.4342995
0.24813814
0.51861008
0.46791501
0.69698878
1.8544406
0.24454031
0.75639463
1.369515
2.1481369
2.4766518
0.31921641
2.1480878
1.0384843
2.4301573
2.9089155
1.2651191
0.94641064
2.1085686
2.2141061
)


69
(
0
0
0
0
0
0.00034350152
1000
0
0
2.6888601
2.9370203
2.8745623
0.37795609
0
1000
0
0.32274792
2.8593768
1000
2.1108276
1.4624846
2.5030528
0
1000
0.39655778
1.7206805
0
0
0.082446526
0.13889233
1.014733
2.9019688
0.39902122
0.83579436
0.37035796
0.81392976
1.8729185
0.34718919
1000
2.4760519
1.0911164
2.601582
0.93163543
0.52700367
1.1591575
0.83529578
0.38644984
0.92672151
0.33917783
1.8757579
1.9868426
2.2590754
0.58791971
0.85148293
3.0902267
0.56345148
1000
1.4149384
1000
1.655596
0.42847939
2.367916
1.5463152
2.5188206
2.8805267
1.6235974
1.7257958
2.4722412
2.10348
)


69
(
0
0
0
0
0
0
1000
0
0
1.8194075
1000
1000
1000
1000
1000
0
0
0.99238119
1000
1000
1000
1000
0
0
0.037983178
0.21046757
0
0
0.89377203
0.28563114
3.0154458
3.4454172
0.26295281
0.70732198
0.28265167
0.55565917
1.4148173
0.21582679
0.68712507
1000
2.3892936
3.5044385
0.63015155
0.43651759
0.88652191
0.80998611
0.82455118
2.0709549
0.22995813
1.8009959
2.9695793
3.078306
0.84760082
1.11498
3.7781934
2.3913551
0.31591136
1.199186
1000
1.1165874
0.49147336
2.6353952
1.8728558
1000
2.5198299
1.9202572
1.9814787
2.5461733
1.7147018
)

)


// ************************************************************************* //
