/*--------------------------------*- C++ -*----------------------------------*\
  =========                 |
  \\      /  F ield         | OpenFOAM: The Open Source CFD Toolbox
   \\    /   O peration     | Website:  https://openfoam.org
    \\  /    A nd           | Version:  8
     \\/     M anipulation  |
\*---------------------------------------------------------------------------*/
/*   Windows 32 and 64 bit porting by blueCAPE: http://www.bluecape.com.pt   *\
|  Based on Windows porting (2.0.x v4) by Symscape: http://www.symscape.com   |
\*---------------------------------------------------------------------------*/
FoamFile
{
    version     2.0;
    format      ascii;
    class       scalarListList;
    location    "constant/vegetation";
    object      skyViewCoeff;
}
// * * * * * * * * * * * * * * * * * * * * * * * * * * * * * * * * * * * * * //


5
(

69
(
0
0
0
188
188
188
188
188
188
188
188
188
188
188
188
188
188
188
188
188
188
188
188
188
188
188
0
0
102.84814
109.77169
133.90324
160.52281
95.491384
95.450404
105.44446
105.98973
107.08038
113.20611
149.52536
135.7455
96.627798
142.17674
96.535488
96.740662
106.21153
106.76385
94.734403
100.4483
109.3316
113.89301
117.6972
121.15872
133.98473
121.5546
177.45434
105.81037
114.88445
104.59809
142.67237
122.30892
142.73993
98.543858
110.4054
114.57358
108.56902
111.74273
124.8946
95.18915
95.635742
)


69
(
0
0
0
227
227
227
227
227
227
227
227
227
227
227
227
227
227
227
227
227
227
227
227
227
227
227
0
0
124.18366
132.54348
161.68104
193.82275
115.30077
115.25129
127.31857
127.97696
129.29386
136.69036
180.54392
163.90547
116.67293
171.67085
116.56147
116.8092
128.24477
128.91167
114.38675
121.28598
132.01209
137.51975
142.1131
146.29271
161.77943
146.77072
214.26668
127.7604
138.71686
126.29662
172.2693
147.68151
172.35087
118.98647
133.30865
138.3415
131.09131
134.9234
150.80358
114.93584
115.47507
)


69
(
0
0
0
192
192
192
192
192
192
192
192
192
192
192
192
192
192
192
192
192
192
192
192
192
192
192
0
0
105.0364
112.10726
136.75224
163.93819
97.523116
97.481264
107.68796
108.24483
109.35868
115.61475
152.70675
138.6337
98.683709
145.20178
98.589435
98.798974
108.47135
109.03542
96.750028
102.5855
111.6578
116.31627
120.20139
123.73656
136.83547
124.14087
181.22997
108.06166
117.3288
106.82358
145.70795
124.91123
145.77695
100.64054
112.75445
117.01131
110.879
114.12023
127.55193
97.214451
97.670545
)


69
(
0
0
0
149
149
149
149
149
149
149
149
149
149
149
149
149
149
149
149
149
149
149
149
149
149
149
0
0
81.51262
86.999906
106.12544
127.22286
75.682001
75.649523
83.57034
84.002501
84.866895
89.721867
118.5068
107.58553
76.58267
112.68263
76.509509
76.67212
84.178286
84.616032
75.082053
79.610623
86.651106
90.266271
93.281289
96.024729
106.19002
96.338487
140.64201
83.860348
91.052035
82.899547
113.07544
96.936322
113.12899
78.101249
87.502153
90.805653
86.046722
88.562054
98.985613
75.442464
75.796412
)


69
(
0
0
0
107
107
107
107
107
107
107
107
107
107
107
107
107
107
107
107
107
107
107
107
107
107
107
0
0
58.535909
62.476443
76.210885
91.361386
54.34882
54.325496
60.0136
60.323944
60.944683
64.431139
85.102198
77.259406
54.995608
80.919742
54.94307
55.059845
60.450178
60.764533
53.917984
57.170045
62.225962
64.822087
66.987234
68.957356
76.257266
69.182672
100.99795
60.221861
65.386361
59.531889
81.201828
69.611989
81.240279
56.086132
62.837117
65.209429
61.791941
63.598253
71.083628
54.176803
54.430981
)

)


// ************************************************************************* //
