/*--------------------------------*- C++ -*----------------------------------*\
  =========                 |
  \\      /  F ield         | OpenFOAM: The Open Source CFD Toolbox
   \\    /   O peration     | Website:  https://openfoam.org
    \\  /    A nd           | Version:  8
     \\/     M anipulation  |
\*---------------------------------------------------------------------------*/
/*   Windows 32 and 64 bit porting by blueCAPE: http://www.bluecape.com.pt   *\
|  Based on Windows porting (2.0.x v4) by Symscape: http://www.symscape.com   |
\*---------------------------------------------------------------------------*/
FoamFile
{
    version     2.0;
    format      ascii;
    class       scalarListList;
    location    "constant/vegetation";
    object      solarLoadFineFaces;
}
// * * * * * * * * * * * * * * * * * * * * * * * * * * * * * * * * * * * * * //


5
(

530
(
717.08284
717.08284
717.08284
717.08284
717.08284
717.08284
717.08284
717.08284
717.08284
717.08284
717.08284
717.08284
20.768973
24.132309
717.08284
717.08284
717.08284
717.08284
717.08284
717.08284
25.474315
717.08284
25.474315
717.08284
717.08284
20.768973
25.474315
717.08284
717.08284
717.08284
717.08284
25.474315
31.486147
713.64144
717.08284
717.08284
717.08284
717.08284
717.08284
717.08284
20.768973
24.132309
427.78641
42.227399
717.08284
717.08284
0
717.08284
717.08284
717.08284
79.919452
79.919452
717.08284
31.312763
31.312763
79.919452
20.768973
59.702248
59.702248
717.08284
717.08284
717.08284
59.702248
59.702248
717.08284
0
31.312763
31.312763
717.08284
717.08284
113.42304
113.42304
717.08284
59.702248
554.13835
717.08284
717.08284
717.08284
717.08284
717.08284
717.08284
717.08284
717.08284
24.132309
42.227399
42.227399
717.08284
717.08284
717.08284
717.08284
717.08284
717.08284
31.486147
31.486147
31.486147
42.227399
42.227399
24.132309
554.13835
717.08284
717.08284
717.08284
717.08284
717.08284
717.08284
717.08284
717.08284
717.08284
717.08284
717.08284
717.08284
717.08284
717.08284
717.08284
717.08284
117.8388
236.55094
0
0
0
0
0
0
0
0
0
0
0
55.762679
0
0
0
0
0
2.9981277
17.935488
17.932204
0
0
0
0
0
0
0
0
0
0
0
0.61661605
0
0
0
0
0
0
480.55305
542.01539
0
0
117.83942
160.80977
0
0
0
0
0
75.870409
39.716877
7.0426052
288.58472
166.57376
101.1485
197.18602
231.71242
0
0
0
0
0
0
0
47.953045
0
0
0
0
0
0
0
0
0
0
0
0
0
0
0
0
0
0
0
0
0
0
0
55.44773
0
0
0
0
0
0
0
0
0
0
0
0
0
47.074555
232.33967
59.510395
201.4573
0
0
28.406593
0
254.44206
90.717595
192.57055
186.85235
491.71246
486.53586
353.35893
32.295169
0
29.109501
19.39584
18.449107
77.653386
50.621362
103.09513
18.024109
186.45844
80.611235
26.240106
0
86.502851
0
140.11123
0
0
0
0
0
0
0
0
0
0
0
0
0
0
0
0
0
0
0
0
0
0
0
0
0
0
0
0
42.12924
0
276.91223
292.63981
227.22813
5.6098702
24.445127
86.440411
158.70439
209.89066
141.93831
0
388.58434
0
0
0
0
0
0
0
0
0
0
0
0
0
0
0
0
0
0
201.7913
212.04869
389.88893
181.16143
6.9289588
0
0
289.9991
258.9955
0
0
0
0
0
0
0
0
0
451.6352
0
0
161.86583
0
0
0
0
0
3.1605644
18.38669
0
0.66413693
0
0
0
0
0
0
270.55988
267.31112
192.55737
159.78034
90.078334
116.07263
47.824056
125.1935
0
0
0
0
0
0
0
0
0
0
0
31.761716
0
0
0
0
0
0
0
0
0
0
0
0
0
0
0
0
0
0
0
36.696761
0
0
0
0
0
0
0
0
0
0
0
0
0
0
0
0
0
0
0
0
3.354407
0
53.6794
21.343597
41.808617
172.70975
10.408259
60.120831
85.78291
33.855623
365.58911
436.10656
531.63887
113.95523
119.30017
54.634045
19.909286
12.61328
47.604893
164.65288
139.76261
97.376749
148.71785
187.68338
158.91947
0
0
0
0
0
0
0
0
0
0
0
57.816779
101.98521
24.279609
0
0
0
0
0
0
0
0
0
0
0
0
0
0
0
0
0
0
0
0
0
0
0
0
0
0
0
44.159917
32.464508
12.230416
0
256.04636
174.82947
249.41025
156.08222
153.34569
333.50311
266.07959
364.09061
397.41469
458.18284
288.31703
22.745259
74.548016
98.334961
57.129458
0
0
48.639959
0
0
0
0
0
0
0
0
0
18.882143
0
40.202371
198.36089
0
0
0
0
0
0
0
0
0
0
0
0
0
0
0
0
0
0
0
0
0
0
85.772537
)


530
(
585.76158
585.76158
585.76158
585.76158
585.76158
585.76158
585.76158
180.83765
585.76158
585.76158
585.76158
585.76158
19.896902
74.06716
585.76158
585.76158
585.76158
585.76158
585.76158
585.76158
19.665799
585.76158
19.665799
585.76158
585.76158
19.896902
19.665799
585.76158
585.76158
585.76158
585.76158
19.665799
67.781585
302.53399
585.76158
585.76158
585.76158
585.76158
585.76158
585.76158
19.896902
74.06716
585.76158
82.087779
585.76158
585.76158
585.76158
585.76158
585.76158
585.76158
585.76158
585.76158
585.76158
21.93257
21.93257
537.26889
19.896902
450.16941
450.16941
302.53399
585.76158
346.46231
585.76158
585.76158
585.76158
346.46231
21.93257
21.93257
585.76158
585.76158
585.76158
180.83765
585.76158
585.76158
582.4741
585.76158
585.76158
585.76158
585.76158
585.76158
585.76158
585.76158
585.76158
74.06716
82.087779
82.087779
585.76158
585.76158
585.76158
585.76158
585.76158
585.76158
67.781585
67.781585
67.781585
585.76158
82.087779
74.06716
582.4741
585.76158
585.76158
585.76158
585.76158
585.76158
585.76158
585.76158
585.76158
585.76158
585.76158
585.76158
21.93257
267.62366
346.46231
585.76158
585.76158
257.19177
349.2219
0
0
0
0
0
0
0
0
0
0
0
8.0998256
0
0
0
0
31.818301
71.184594
137.65094
137.65531
0
0
0
0
0
0
0
63.754693
90.195001
63.762466
81.760043
43.046666
0
0
73.420877
0
2.0997724
0
305.79898
348.45865
0
5.7620416
257.19222
291.80245
0
75.246055
0
0
123.68484
212.13627
184.37106
123.13168
390.46232
283.39336
209.49303
303.15207
81.155189
0
0
0
0
0
0
45.8787
58.483183
21.848448
0
0
0
0
0
0
0
0
0
0
0
0
0
0
0
0
0
0
0
44.687584
0
39.164671
7.8513785
0
0
0
0
0
0
0
0
0
0
0
0
0
41.054744
226.06239
84.078094
166.71912
0
0
58.263874
0
278.32389
152.30103
193.70117
156.9738
437.8601
398.42463
298.54573
82.396259
28.384143
87.650423
135.68628
175.50101
199.54084
197.73594
245.46147
175.08134
309.07604
220.96618
0
0
0
0
15.223454
0
0
0
0
0
0
0
0
0
0
0
0
0
0
0
0
0
0
0
0
18.419671
13.118106
47.085738
54.009701
57.235164
0.30913305
29.906383
137.6077
187.11314
12.264916
376.74928
392.00333
43.952573
18.156407
62.001989
154.42596
248.86545
313.34651
237.82854
0
282.43903
0
0
0
0
0
0
0
0
0
0
0
17.081682
0
0
0
0
0
0
93.669844
67.468834
242.24585
65.949767
88.695964
0
0
112.00162
78.282268
0
0
0
0
0
0
0
0
0
328.85586
32.292959
39.46812
292.65749
0
0
0
0
0
0
0
0
0
0
0
0
0
0
0
376.84685
370.5864
5.9922955
11.305395
0
26.686741
0
0
0
0
0
0
0
0
0
0
0
0
0
46.923415
0
0
0
0
0
0
0
0
0
0
0
0
0
0
0
0
85.208412
0
0
43.25244
0
0
0
0
0
0
0
0
0
0
0
0
0
0
0
0
0
0
0
0
0
0
8.348701
23.287989
40.952558
109.83261
11.243288
121.86878
174.4876
124.8775
329.40782
255.27655
329.17406
229.12361
202.13708
67.029557
176.69752
79.723467
195.65194
245.38436
219.8233
217.64432
282.147
309.68508
285.09092
0
0
0
0
0
0
0
0
0
0
0
0
0
0
0
0
0
0
0
0
0
0
0
0
0
0
0
0
0
0
0
0
0
0
0
0
5.9426022
0
0
0
0
33.828625
28.087129
100.6663
30.33164
62.009138
5.4761465
62.624379
13.439254
0
136.76519
77.106317
162.47814
194.7224
259.55812
93.717954
46.922932
145.98496
198.42581
133.2187
0
0
0
0
0
0
0
0
0
0
0
0
78.513049
0
40.57661
124.36265
0
0
0
0
0
0
0
0
0
0
0
0
0
0
0
0
0
0
0
0
0
0
0
)


530
(
536.2201
536.2201
536.2201
536.2201
536.2201
536.2201
536.2201
536.2201
536.2201
536.2201
536.2201
536.2201
89.930928
180.57657
30.274244
536.2201
536.2201
536.2201
536.2201
536.2201
40.845613
536.2201
40.845613
536.2201
24.936186
89.930928
40.845613
24.936186
536.2201
536.2201
30.274244
40.845613
0
72.854435
536.2201
536.2201
536.2201
536.2201
536.2201
536.2201
89.930928
536.2201
536.2201
536.2201
536.2201
536.2201
536.2201
536.2201
536.2201
536.2201
0
0
0
58.297034
58.297034
0
536.2201
536.2201
536.2201
72.854435
72.854435
30.274244
203.80202
203.80202
24.936186
30.274244
58.297034
58.297034
536.2201
536.2201
536.2201
536.2201
536.2201
536.2201
536.2201
536.2201
536.2201
536.2201
536.2201
536.2201
536.2201
536.2201
536.2201
180.57657
238.30938
238.30938
536.2201
536.2201
536.2201
536.2201
536.2201
536.2201
0
0
0
536.2201
536.2201
536.2201
536.2201
536.2201
360.31595
360.31595
536.2201
536.2201
536.2201
536.2201
171.42304
536.2201
536.2201
24.936186
58.297034
24.936186
30.274244
72.854435
72.854435
409.76762
488.56669
0
0
19.040307
68.225654
0
0
0
0
0
0
19.143402
74.082461
0
0
0
0
79.981358
150.45224
300.33693
300.34107
0
0
0
0
0
0
0
2.7551691
250.57022
2.7420611
243.15793
98.878145
0
0
34.092788
113.1955
161.85214
28.167002
189.99488
217.72006
151.4546
171.75056
409.76799
438.30966
0
42.231673
99.171297
128.91408
269.57115
360.43587
336.7668
262.8864
522.51714
422.3245
335.73319
435.22738
0
0
0
0
34.328259
0
0
66.37826
189.60637
165.40014
47.427464
0
0
0
0
13.843583
0
0
0
0
0
0
0
0
0
0
0
0
0
158.66607
62.991215
154.00694
74.449646
0
0
0
0
0
0
0
0
0
0
0
0
0
52.456696
256.33757
126.9258
165.7861
0
0
103.04573
0
339.94999
234.05381
227.23584
159.36139
446.43985
372.68013
293.03468
211.07757
193.00925
216.26933
298.48655
331.84349
322.34078
346.10222
399.36504
331.348
448.55815
365.52541
0
0
0
0
0
0
0
0
0
0
0
0
0
4.4328412
0
30.875019
0
0
0
0
0
0
0
0
0
114.54558
162.5837
208.9962
205.76453
180.14975
100.58935
81.392612
282.44215
339.93979
112.16603
508.75683
520.66592
0
59.045844
113.88211
241.84375
363.75233
444.23064
356.43551
0
228.88064
0
0
0
0
0
0
0
0
0
79.175465
0
40.203867
0
0
0
0
0
0
0
0
145.93913
0
178.66092
0
0
17.595104
0
0
0
0
0
0
0
0
0
0
264.65156
192.0149
199.17068
439.0993
0
0
0
0
0
0
0
0
0
0
0
0
0
0
0
511.12372
504.65967
98.331837
0
0
0
0
0
0
0
0
0
0
0
0
0
5.2463206
18.296322
31.424256
136.56683
25.337953
60.036871
0
0
0
0
0
0
0
0
0
0
0
0
0
0
217.68986
122.6411
42.02133
156.3857
0
0
0
0
0
0
0
0
0
0
0
0
0
0
0
0
0
0
0
0
0
0
3.6627964
0
0
77.664264
25.530279
200.73826
281.31755
228.87718
343.47121
128.21604
185.32345
349.20899
287.98091
220.84193
332.92725
170.22979
344.72897
334.57351
305.22687
341.22437
429.68588
448.56597
424.38744
0
0
0
0
0
0
0
0
0
0
0
0
0
0
0
0
0
0
0
0
0
0
0
0
0
0
0
0
0
0
0
0
0
0
0
0
121.41901
0
3.9027165
0
0
160.32453
128.26756
232.07554
183.96223
65.16283
0
0
0
0
12.830138
0
0.56317407
35.332535
114.32567
41.709398
85.552154
235.50781
316.92954
225.43448
0
0
0
0
0
0
0
0
0
0
0
0
0
0
0
83.663663
0
0
0
48.209174
80.705545
0
0
0
43.518896
0
0
0
0
0
0
0
0
0
0
0
0
0
0
)


530
(
411.8157
411.8157
411.8157
411.8157
0
411.8157
411.8157
411.8157
0
411.8157
411.8157
411.8157
27.98632
21.835905
23.243223
411.8157
411.8157
411.8157
411.8157
411.8157
0
411.8157
0
411.8157
23.598877
27.98632
0
23.598877
411.8157
411.8157
23.243223
0
0
49.886395
411.8157
411.8157
0
411.8157
411.8157
411.8157
27.98632
21.835905
95.401216
33.700852
49.886395
95.401216
23.243223
411.8157
411.8157
411.8157
0
411.8157
411.8157
411.8157
411.8157
0
27.98632
73.692087
73.692087
49.886395
49.886395
23.243223
73.692087
73.692087
23.598877
23.243223
277.00018
411.8157
411.8157
411.8157
411.8157
411.8157
411.8157
411.8157
411.8157
282.20107
282.20107
0
411.8157
411.8157
411.8157
411.8157
411.8157
21.835905
33.700852
33.700852
411.8157
411.8157
411.8157
411.8157
411.8157
411.8157
0
0
0
33.700852
33.700852
21.835905
411.8157
411.8157
0
0
411.8157
411.8157
411.8157
411.8157
411.8157
411.8157
411.8157
23.598877
277.00018
23.598877
23.243223
49.886395
49.886395
495.79122
550.56113
42.910569
0
74.760583
19.21216
0
55.415845
0
0
0
0
74.566485
158.06261
0
0
0
0
125.45183
214.35092
411.74849
411.75183
0
0
0
4.9092368
86.912754
0
2.8569229
116.82481
370.17197
116.81359
364.64181
148.71369
0
0
23.867549
26.669025
39.51541
18.663925
56.282406
62.839605
30.125921
41.800025
495.7915
511.98895
0
186.15206
25.441966
28.185679
374.8061
452.88022
436.361
363.98812
570.39315
496.68436
413.5391
501.67864
0
0
3.4738204
59.911181
55.97167
62.499516
0
25.630697
280.42029
37.437741
167.18941
75.140713
91.944336
0
0
46.65179
0
0
0
55.404633
29.606486
0
0
0
0
0
0
0
0
253.07778
149.59487
249.90212
158.30511
0
0
0
0
0
0
0
0
0
0
0
0
0
67.099593
257.69906
160.25104
151.21005
0
0
141.83265
28.211798
357.86281
287.41386
236.25669
148.99118
396.28066
300.96312
254.05135
296.18167
41.093621
300.5495
137.79404
430.233
385.3381
433.2369
488.14715
429.70593
512.59076
445.79779
0
0
0
0
0
0
0
0
0
0
0
0
31.037712
81.159942
31.182561
103.96623
0
0
0
0
0
22.467066
20.361466
0
37.870884
239.57539
287.30913
336.23612
325.7805
279.28891
192.11324
203.11568
384.76172
439.32348
200.84908
561.69896
564.31741
0
100.79985
157.72493
299.24012
426.96437
508.12872
424.15176
0
152.70784
0
0
0
0
0
0
0
0
0
126.18885
11.954945
44.987069
0
0
0
0
0
0
0
0
39.700205
0
228.91911
0
0
0
0
0
0
0
0
0
0
0
0
0
172.05932
43.034532
43.869219
512.61688
0
0
0
0
0
0
0
0
0
0
0
0
0
0
0
562.63239
559.89733
0
0
0
0
0
0
0
0
0
88.766366
0
0
0
0
53.63347
86.021666
128.7742
192.71948
11.992314
177.81088
0
0
0
0
29.425624
0
0
0
0
0
0
0
0
0
319.51648
246.69616
163.19436
250.38261
0
0
0
0
0
0
0
0
0
0
0
0
0
0
0
0
0
0
0
0
0.64727572
0
9.442607
0
0
46.217215
46.997758
256.56801
350.34873
303.49684
315.43191
0
19.783958
405.62422
318.2463
331.60848
144.7606
222.27327
432.85319
361.57426
332.59109
402.38602
505.56531
511.90741
491.16154
0
0
0
0
0
0
0
0
0
0
0
0
0
0
0
0
0
0
0
0
0
0
0
0
0
0
0
0
22.471722
31.362597
0
0
23.267336
111.00565
26.479154
0
235.72309
0
148.94225
56.730909
34.110269
265.65248
214.77758
330.74229
308.82857
0
0
0
0
0
0
0
0
0
0
0
121.16412
295.83023
390.86779
289.79716
0
0
0
0
0
0
0
0
0
0
0
0
0
0
0
42.915979
0
0
0
8.4887709
23.814313
0
0
10.258451
9.2174987
0
0
0
0
0
0
0
0
0
0
0
0
0
0
)


530
(
284.42858
284.42858
284.42858
284.42858
0
284.42858
284.42858
284.42858
0
284.42858
284.42858
284.42858
46.112067
0
0
0
0
284.42858
284.42858
284.42858
0
284.42858
284.42858
284.42858
105.43567
46.112067
284.42858
105.43567
284.42858
0
0
0
0
0
0
0
0
284.42858
284.42858
284.42858
284.42858
0
0
0
0
0
0
284.42858
284.42858
284.42858
284.42858
284.42858
284.42858
284.42858
284.42858
284.42858
284.42858
284.42858
230.44555
0
0
0
230.44555
284.42858
284.42858
284.42858
284.42858
284.42858
0
284.42858
284.42858
284.42858
284.42858
284.42858
284.42858
0
0
0
284.42858
284.42858
284.42858
284.42858
284.42858
0
0
0
0
0
0
284.42858
284.42858
284.42858
0
0
0
0
0
0
284.42858
284.42858
0
0
0
284.42858
284.42858
284.42858
284.42858
284.42858
284.42858
284.42858
284.42858
105.43567
0
0
0
546.61481
577.87636
1.9462295
0
175.72686
65.460269
0
123.51023
0
65.459381
1.0619596
0
175.53654
233.35802
0
0
12.45665
0
169.65515
269.30988
44.799032
44.799262
0
0
0
101.89344
161.06922
0
105.86852
219.54145
57.885869
219.53242
57.408114
195.39019
0
0
14.623656
16.890191
19.585341
13.854241
0
0
18.129311
20.812126
223.62549
548.97449
0
38.803719
16.595713
17.586425
453.22224
514.57331
504.88238
440.05043
582.32174
540.38008
467.11722
538.74217
0
0
1.0177343
7.1707168
12.073779
6.3001506
0
14.264382
31.052617
17.875819
271.52154
175.98866
214.4766
118.56833
125.94583
117.60744
0
0
0
123.50312
14.957488
0
0
64.148278
0
2.3501465
0
0
0
331.34466
227.59022
329.59603
233.48135
0
0
0
0
0
0
0
0
0
156.31511
0
0
0
87.550265
255.77249
191.96317
141.22943
0
0
179.32767
62.622714
364.31942
328.93701
242.3388
142.87644
339.75589
230.75555
216.3727
31.947706
19.150703
32.261586
44.705542
45.162235
37.922774
44.29645
49.672795
45.110969
539.75588
44.808123
0
0
0
0
0
0
0
0
0
0
0
0
39.308434
154.64437
97.161841
173.09619
0
0
0
0
0
40.088328
115.10266
0
30.979355
343.38535
48.840529
54.668385
52.864183
359.74782
271.73472
306.75665
460.12022
222.44438
277.57118
581.4504
571.65546
0
143.13804
198.71183
343.47388
467.49703
542.55495
468.63407
0
86.94148
0
0
0
0
0
0
0
0
0
7.41278
0.22774019
1.7629822
0
0
0
0
0
0
0
0
29.381818
0
23.086678
0
0
0
0
0
0
0
0
0
0
0
0
0
90.050005
20.633538
20.882591
224.78376
0
0
29.777024
0
0
0
0
0
0
0
0
0
0
0
0
577.95867
581.47202
0
0
0
0
0
0
0
0
0
8.8191827
0
0
0
0
12.872441
6.4634854
9.8106182
20.411127
11.352449
279.88652
238.36155
9.4219326
0
0
15.207575
0
0
0
0
0
0
0
0
0
399.4175
349.25787
268.90629
328.47716
189.09074
0
0
0
0
0
0
218.83049
120.25586
55.099221
66.552577
0
0
0
0
0
0
0
0
0
22.456921
0
6.7700628
0
0
26.764392
74.51075
302.09762
401.12157
362.0419
283.91386
0
0
39.157596
29.258273
37.348511
45.209194
22.653918
44.351655
32.798955
30.278653
39.275596
49.949583
220.26152
47.789015
0
11.402253
0
0
13.243975
8.7283757
0.10895948
2.4484399
0
0
0
0
0
0
0
0
0
0
0
0
0
0
0
0
0
0
0
0
91.2066
97.348686
0
0
38.463565
217.05958
63.212383
0
331.32572
37.666373
121.9001
24.953751
161.08235
352.04955
288.83939
407.30676
407.32358
0
0
0
0
0
0
0
0
0
0
0
157.04539
342.77117
442.93116
340.55125
0
0
0
0
0
0
0
0
0
0
0
0
0
0
0
15.254185
0
0
0
10.207853
16.011763
16.459335
38.493052
19.297017
10.491722
22.304523
0
0
0
0
0
0
0
0
0
0
0
0
0
)

)


// ************************************************************************* //
