/*--------------------------------*- C++ -*----------------------------------*\
  =========                 |
  \\      /  F ield         | OpenFOAM: The Open Source CFD Toolbox
   \\    /   O peration     | Website:  https://openfoam.org
    \\  /    A nd           | Version:  8
     \\/     M anipulation  |
\*---------------------------------------------------------------------------*/
/*   Windows 32 and 64 bit porting by blueCAPE: http://www.bluecape.com.pt   *\
|  Based on Windows porting (2.0.x v4) by Symscape: http://www.symscape.com   |
\*---------------------------------------------------------------------------*/
FoamFile
{
    version     2.0;
    format      ascii;
    class       labelListList;
    location    "constant/vegetation";
    object      subMap;
}
// * * * * * * * * * * * * * * * * * * * * * * * * * * * * * * * * * * * * * //


20
(
8(0 1 2 3 4 8 15 22)

47
(
0
1
2
3
4
5
6
7
8
9
10
11
12
13
14
15
16
17
18
19
20
21
22
23
24
25
26
27
29
31
32
33
34
35
37
38
42
43
44
45
46
47
48
51
56
60
66
)


22
(
0
1
2
3
4
5
7
8
9
15
16
17
22
23
24
25
26
27
32
35
37
56
)

6(1 2 4 26 27 29)

22
(
0
1
2
3
4
5
7
8
9
15
16
17
22
23
24
25
26
27
32
34
37
56
)


35
(
0
1
2
4
6
7
9
10
11
12
13
14
15
16
18
19
20
21
23
24
25
26
27
28
29
30
31
40
46
47
50
51
54
55
58
)

6(0 1 2 46 28 29)

58
(
0
1
2
3
4
5
6
7
8
9
10
11
12
13
14
15
16
17
18
19
20
21
22
23
24
25
26
27
28
29
30
31
32
33
34
35
36
37
38
40
41
42
43
44
45
46
47
48
49
50
51
54
55
56
57
59
60
66
)


18
(
0
1
2
3
4
8
22
26
27
31
32
35
37
38
43
45
56
66
)


53
(
0
1
2
3
4
5
6
7
8
9
10
11
12
13
14
15
16
17
18
19
20
21
22
23
24
25
26
27
28
29
30
31
32
33
34
35
36
37
38
40
42
43
44
45
46
47
48
50
51
56
59
60
66
)


55
(
0
1
2
3
4
5
6
7
8
9
10
11
12
13
14
15
16
17
18
19
20
21
22
23
24
25
26
27
30
33
34
35
36
38
39
41
42
43
44
45
49
52
53
54
57
58
59
61
62
63
64
65
66
67
68
)


44
(
0
1
2
3
4
5
6
7
8
9
10
11
12
13
14
15
16
17
18
19
20
21
22
23
24
25
26
27
30
39
50
52
53
54
55
57
58
61
62
63
64
65
67
68
)


56
(
0
1
2
3
4
5
6
7
8
9
10
11
12
13
14
15
16
17
18
19
20
21
22
23
24
25
26
27
33
34
35
36
37
38
39
41
42
43
44
45
49
52
53
54
57
58
59
60
61
62
63
64
65
66
67
68
)


13
(
0
1
2
6
26
27
52
53
58
61
62
63
65
)


33
(
0
1
2
4
6
7
9
10
12
14
15
18
19
20
21
23
24
26
27
30
39
50
52
53
54
58
61
62
63
64
65
67
68
)


69
(
0
1
2
3
4
5
6
7
8
9
10
11
12
13
14
15
16
17
18
19
20
21
22
23
24
25
26
27
28
29
30
31
32
33
34
35
36
37
38
39
40
41
42
43
44
45
46
47
48
49
50
51
52
53
54
55
56
57
58
59
60
61
62
63
64
65
66
67
68
)


54
(
0
1
2
3
4
5
6
7
8
9
10
11
12
13
14
15
16
17
18
19
20
21
22
23
24
25
26
27
28
29
30
33
34
36
39
40
42
43
46
48
50
52
53
54
55
57
58
61
62
63
64
65
67
68
)


57
(
0
1
2
3
4
5
6
7
8
9
10
11
12
13
14
15
16
17
18
19
20
21
22
23
24
25
26
27
28
29
30
31
32
33
34
35
36
37
38
40
41
42
43
44
45
46
47
48
50
51
54
55
56
58
59
60
66
)


42
(
0
1
2
3
4
5
6
7
8
9
10
11
12
13
14
15
16
17
18
19
20
21
22
23
24
25
26
27
28
29
30
31
40
46
47
50
51
54
55
58
63
66
)


48
(
0
1
2
3
4
5
6
7
8
9
10
11
12
13
14
15
16
17
18
19
20
21
22
23
24
25
26
27
28
29
30
31
39
40
46
47
50
51
52
53
54
55
58
60
61
62
63
67
)

)


// ************************************************************************* //
