/*--------------------------------*- C++ -*----------------------------------*\
  =========                 |
  \\      /  F ield         | OpenFOAM: The Open Source CFD Toolbox
   \\    /   O peration     | Website:  https://openfoam.org
    \\  /    A nd           | Version:  8
     \\/     M anipulation  |
\*---------------------------------------------------------------------------*/
/*   Windows 32 and 64 bit porting by blueCAPE: http://www.bluecape.com.pt   *\
|  Based on Windows porting (2.0.x v4) by Symscape: http://www.symscape.com   |
\*---------------------------------------------------------------------------*/
FoamFile
{
    version     2.0;
    format      ascii;
    class       scalarListList;
    location    "constant/vegetation";
    object      sunViewCoeff;
}
// * * * * * * * * * * * * * * * * * * * * * * * * * * * * * * * * * * * * * //


5
(

69
(
0
0
0
717.08284
717.08284
697.97103
717.08284
566.5825
717.08284
20.768973
24.132309
476.90463
717.08284
717.08284
25.474315
717.08284
717.08284
717.08284
31.486147
716.51732
659.611
42.227399
717.08284
239.78226
169.29314
248.08458
0
0
193.44659
170.5064
0
0
0
0
15.96833
0
0
44.67543
0
0
38.789233
0
0
0
0
0
12.75625
0
31.575577
0
0
0
395.38562
124.01626
0
31.844513
0
4.7981118
0
0
366.11062
23.066723
197.53571
0
0
79.72806
0
13.7
0
)


69
(
0
0
0
585.76158
585.76158
585.37599
585.76158
332.62645
585.76158
19.896902
74.06716
465.71643
585.76158
585.76158
19.665799
585.76158
585.76158
522.00595
67.781585
492.3233
585.76158
144.36072
585.76158
573.70756
21.93257
547.09649
0
0
317.71602
292.7873
7.0960744
0
14.814198
0
14.800358
0
0
88.755428
0
0
198.595
0
0
0
0
0
44.961631
20.655027
125.19763
0
1.5105974
0
194.23659
6.9782015
0
163.50666
0
0
0
0
287.09232
0
6.9522543
0
0
6.3346841
0
0
0
)


69
(
0
0
0
536.2201
536.2201
536.2201
536.2201
536.2201
536.2201
201.55711
359.02397
115.26654
536.2201
486.19475
40.845613
536.2201
484.21702
24.936186
0
148.48162
536.2201
460.70521
536.2201
0
58.297034
441.43464
0
0
461.47164
432.30546
31.745982
0
51.466923
0
2.1418612
0
0
157.14312
0
0
356.01467
0
0
9.6470498
0
7.3404917
190.09052
176.78529
224.24031
0
157.95944
36.503671
31.890154
0
0
283.4902
0
0
0
0
259.44983
0
0
0
0
0
0
0
0
)


69
(
0
0
0
411.8157
411.8157
411.8157
0
411.8157
411.8157
27.98632
21.835905
23.243223
374.13603
294.69951
0
411.8157
411.8157
23.598877
0
49.886395
284.99426
33.700852
411.8157
206.52899
357.64242
218.98496
0
0
529.2664
505.24721
11.036183
0
161.92794
0
38.387407
0
0
205.59139
0
0
391.81649
0
0
36.643372
0
5.8406693
302.14115
304.77235
294.84097
0
38.367761
20.363529
28.867471
0
0
351.42713
11.068831
13.018691
0
0
204.62382
0
0
0
0
0
7.7736694
0
0
)


69
(
0
0
0
284.42858
284.42858
284.42858
0
284.42858
284.42858
165.21136
0
47.48562
0
0
142.39951
284.42858
284.42858
177.08797
0
0
0
0
284.42858
284.42858
284.42858
269.05817
0
0
439.19635
548.3909
3.8080126
0
259.80206
14.747628
93.20596
8.7154888
0
248.5645
32.256051
0
46.938063
0
0
114.98191
0
117.83568
377.75028
146.01094
350.16335
0
18.955354
14.706011
0
0
0
34.703731
175.82226
12.850329
0
0
147.99075
0
0
0
0
0
10.744493
0
0
)

)


// ************************************************************************* //
