/*--------------------------------*- C++ -*----------------------------------*\
  =========                 |
  \\      /  F ield         | OpenFOAM: The Open Source CFD Toolbox
   \\    /   O peration     | Website:  https://openfoam.org
    \\  /    A nd           | Version:  8
     \\/     M anipulation  |
\*---------------------------------------------------------------------------*/
/*   Windows 32 and 64 bit porting by blueCAPE: http://www.bluecape.com.pt   *\
|  Based on Windows porting (2.0.x v4) by Symscape: http://www.symscape.com   |
\*---------------------------------------------------------------------------*/
FoamFile
{
    version     2.0;
    format      ascii;
    class       scalarListList;
    location    "constant/air";
    object      divqrsw;
}
// * * * * * * * * * * * * * * * * * * * * * * * * * * * * * * * * * * * * * //


5
(

6085
(
0
0
0
0
0
-106.08656
0
0
0
0
0
0
0
0
-96.095693
0
0
-123.07977
0
0
-99.761947
0
0
0
0
-93.267413
0
0
-111.81149
0
0
0
0
0
0
-91.067186
0
0
0
0
0
0
0
0
0
0
0
0
0
0
0
0
0
0
0
0
0
0
0
0
0
0
0
0
0
0
0
0
0
0
0
0
0
0
0
0
0
0
0
0
0
0
0
0
0
0
0
0
0
0
0
0
0
0
0
0
0
0
0
0
0
0
0
0
0
0
0
0
0
0
0
0
0
0
0
-136.09084
0
-110.16466
0
0
0
0
0
0
0
0
0
-109.41007
0
0
0
0
0
0
0
-38.176555
0
0
0
0
-40.620442
0
0
0
-149.24629
0
0
-84.383604
-162.89583
0
-166.85242
0
-129.30489
0
0
0
0
0
0
0
0
-132.46269
0
0
0
0
0
0
0
0
0
0
0
-131.89271
0
0
0
0
0
0
0
0
0
0
0
0
0
0
0
0
0
0
0
-128.37914
0
-49.783639
0
0
-79.09001
0
0
0
0
-38.941997
0
0
0
0
0
0
-95.587718
0
0
-130.30629
-50.487522
0
0
0
0
0
0
0
0
0
0
0
-150.27667
-51.158813
-193.75624
-81.287639
0
-41.15119
-163.02234
-96.59008
-152.89959
-57.432412
-191.28774
0
0
0
0
0
-131.48844
0
-184.02545
0
0
0
-139.92871
0
0
0
-138.12139
-198.70724
0
0
0
0
0
0
0
0
0
-106.27249
0
0
0
0
0
0
0
0
0
0
0
0
0
-45.750885
-104.70974
0
-32.725612
0
0
0
0
0
0
0
0
0
-135.19668
0
0
0
0
0
0
0
0
0
0
0
0
0
0
0
0
0
0
0
0
0
0
0
0
0
0
0
0
0
0
0
0
0
0
0
0
0
0
0
0
0
0
0
0
0
0
0
0
0
0
0
0
0
0
0
0
0
0
0
0
0
0
0
0
0
0
0
0
0
0
0
0
0
0
0
0
0
0
0
0
0
0
0
0
0
0
0
0
0
0
-135.66293
0
0
0
0
0
0
0
0
0
0
0
-110.89118
0
0
0
0
0
0
0
0
0
0
0
0
0
0
0
0
0
0
0
0
0
0
0
0
0
0
0
0
0
0
0
0
0
0
0
0
0
0
0
0
0
0
0
0
0
0
0
0
0
0
0
0
0
0
0
0
0
0
0
0
0
0
0
0
0
0
0
0
0
0
0
0
0
0
0
0
0
0
0
0
0
0
0
0
0
0
0
0
0
0
0
0
0
0
0
0
0
0
0
0
0
0
0
0
0
0
0
0
0
0
0
0
0
0
0
0
0
0
0
0
0
0
0
0
0
0
0
0
0
0
0
0
0
0
0
0
0
0
0
0
0
0
0
0
0
0
0
0
0
0
0
0
0
0
0
0
0
0
0
0
0
0
0
0
0
0
0
0
0
-159.95642
0
0
-87.954078
-174.73526
-87.614613
-171.23921
0
0
0
0
0
0
0
-115.97568
0
-39.409618
-71.272144
-162.25938
0
-151.71767
-75.266297
-80.540814
-157.41691
0
0
0
0
0
0
0
0
0
0
0
0
0
0
0
0
0
0
0
0
0
0
0
0
0
0
0
-92.971727
0
0
-126.19307
0
0
-136.18899
0
-99.901617
0
0
0
0
-95.323503
0
0
0
0
0
0
0
0
0
0
0
0
0
0
0
0
0
0
0
0
0
0
0
0
0
0
0
0
0
0
0
0
-142.46398
0
0
0
0
0
0
0
0
0
0
0
0
0
0
0
0
0
0
0
0
0
0
0
0
0
0
0
0
0
0
0
0
0
0
0
0
0
0
0
0
0
0
0
0
0
0
0
-144.30549
-131.40759
0
-135.81987
-110.9696
-123.59956
-155.95388
0
-104.20169
0
0
0
0
0
0
0
0
-107.85034
0
0
0
0
0
0
0
0
0
0
-100.41027
-150.34919
-186.07224
-151.45935
0
0
0
0
0
0
0
0
0
0
0
0
-20.462892
0
0
-130.02294
0
0
-123.40048
-120.09518
0
0
0
-133.01781
0
0
0
0
0
0
-34.638308
0
-23.558933
-167.44518
-157.09287
-158.85726
-148.36061
-149.38757
-135.53502
-191.08801
0
0
0
0
0
0
0
0
0
0
0
0
0
0
0
0
0
0
-157.1768
0
0
-97.900968
-132.8419
-204.68146
0
0
0
0
0
0
0
0
-125.63746
0
0
-101.43908
0
0
0
0
0
0
0
0
0
0
0
0
0
0
0
0
0
0
0
-99.211646
0
0
0
0
0
0
0
0
0
0
-62.758945
-76.009424
-94.087419
-73.887867
-78.874411
-60.180051
-75.288096
0
0
0
0
0
-125.10548
-83.837388
-84.544137
-94.144979
0
-98.964709
0
0
0
0
0
-71.699658
-87.74042
-72.445447
0
0
0
0
0
0
0
0
0
0
0
0
0
0
0
0
0
0
0
0
0
0
0
0
0
0
0
0
0
0
0
0
0
0
0
0
0
0
0
0
0
0
0
0
0
0
0
0
0
0
0
0
0
0
0
0
0
0
0
0
0
0
0
0
0
0
0
0
0
0
0
0
0
0
0
0
0
0
0
0
0
0
0
0
0
0
-141.73005
-152.7233
-109.23534
-145.00512
-156.00267
-127.93686
-127.0542
-111.43248
-108.75879
-91.624743
-127.01592
-124.733
-91.253741
-112.51714
0
0
0
0
0
0
0
0
-95.804464
-92.893394
-127.73666
-100.74606
0
-115.40202
0
0
0
0
0
0
0
0
0
0
0
0
0
0
0
0
-15.501415
0
0
0
0
0
0
-27.156251
-18.951534
0
0
0
0
0
0
0
0
0
0
0
0
0
0
0
0
0
0
0
0
0
-87.269395
0
-17.918455
0
-47.620674
-40.170189
-22.242393
0
-75.607844
0
0
-41.784382
0
0
0
0
0
0
0
0
0
0
0
-148.0445
-140.66372
-129.84523
-163.50472
-120.56951
-158.59781
-153.92676
0
0
0
0
0
0
0
-118.20756
-104.30107
0
0
0
-124.05517
0
-132.99937
0
0
-128.25452
-138.38578
0
-123.39133
-164.62558
-152.09164
-165.68115
-161.83713
-148.68822
-165.83095
-164.21305
-127.39979
0
0
0
0
0
-121.47636
-172.09461
-179.15338
-171.80798
-163.22786
-171.41802
-179.80035
-165.95107
0
-122.05726
-94.243044
-101.98988
-92.471217
-89.596699
0
0
0
0
0
0
0
0
0
0
0
0
0
0
0
0
0
0
0
0
0
0
0
0
0
0
0
0
0
-90.624839
-95.766792
0
-92.260291
0
-114.60497
0
0
0
0
0
0
0
0
0
0
0
0
0
0
-111.26922
-123.13393
-114.07948
-175.20009
-111.41766
-140.49473
-93.068546
-157.43643
0
0
0
0
0
0
0
0
0
0
0
0
0
0
0
0
0
0
0
0
0
0
-119.3079
-132.01201
0
0
0
0
0
0
0
0
0
0
0
0
0
0
0
0
0
0
0
-75.904717
0
0
0
0
0
0
0
-121.26576
-181.51134
0
0
-121.42523
-134.58012
-152.29584
-182.65996
-148.76003
-120.70802
0
-127.52446
-193.08366
0
0
-163.22517
-192.56045
0
-162.17962
0
0
-168.7289
-160.42488
-186.98417
-151.24397
-176.82254
-159.25368
-180.52509
-149.15097
-169.36655
-145.7909
-184.89137
0
0
-111.34112
0
-162.23971
-127.68406
0
0
0
0
0
0
0
0
0
0
0
0
0
0
0
0
-110.96669
0
0
-68.784031
0
0
0
0
0
0
0
0
0
0
-35.261523
-95.135469
0
0
-59.142512
0
0
0
0
0
0
0
0
0
0
0
0
0
0
-41.0549
0
0
0
-48.359384
0
-25.217797
0
0
0
0
0
0
0
0
0
0
0
0
0
0
0
0
0
0
0
0
0
0
0
-15.968526
0
0
-19.092823
0
0
-45.152191
0
-19.537393
0
0
-23.497806
0
0
0
0
0
0
0
0
0
-143.80138
0
0
0
-73.106737
0
0
0
0
0
0
0
0
0
0
0
0
0
0
0
-142.54181
-132.42056
-74.574875
0
0
0
0
0
0
0
0
0
0
0
0
0
0
0
-133.01415
0
0
-61.095448
0
-108.17464
0
0
0
0
0
0
0
0
0
0
0
0
0
0
0
-127.02201
-111.67276
0
0
-116.74426
0
0
-57.28241
0
-96.705747
0
0
-103.98193
0
0
0
0
0
0
0
0
0
-168.02833
0
-156.904
0
0
-76.915971
-145.01783
-170.38517
0
0
0
0
0
0
0
0
0
0
0
0
0
0
0
0
0
-100.84511
-156.71882
-165.66526
-130.7413
0
0
-101.03528
0
-146.96557
0
0
-137.28917
-117.76295
-85.579488
-129.74798
0
0
0
-79.738664
0
0
0
-121.53827
0
0
-97.718754
0
-139.45624
0
-94.798191
0
-137.71297
0
-136.72585
0
-82.01874
-82.396248
-131.56271
-126.60067
-75.95985
-78.05529
0
0
0
0
-66.207171
0
-154.89406
-99.337745
-140.19745
0
-50.080619
0
-106.59393
-66.564719
0
-138.48918
0
0
0
-137.98635
-89.302461
0
-145.21149
0
-120.29564
-181.73913
-87.121848
-116.84465
-113.82533
-144.01695
-59.168441
-50.41021
-99.340241
-92.124593
-78.492301
-87.335689
-149.75657
0
-152.83403
-151.92075
-97.576572
-188.11083
-160.33242
-139.48261
-121.16818
-45.827663
-91.178355
-50.246877
-28.530232
-51.304482
0
-18.406322
-22.006127
-41.515745
-40.426956
-22.812731
-26.78485
-43.974081
-177.66599
-167.52311
-162.40461
-151.01194
-191.17023
-152.87286
-193.3073
-101.90518
-149.63793
-140.43561
-101.72415
-61.699446
-114.85543
-71.697443
-133.89967
-107.66041
-132.81943
-151.16038
-120.24494
-175.7565
-134.63647
-129.50793
-177.86586
-90.076992
-61.550487
-58.199826
-89.58815
-94.334637
-86.200425
-62.201812
-132.36243
-191.20252
-143.83674
-185.52375
-131.71632
-133.62045
-189.2014
0
0
0
0
0
0
0
0
0
0
0
0
0
0
0
0
0
0
0
0
0
0
-192.24369
0
-98.386091
-97.140743
0
0
0
0
0
0
0
0
0
0
-73.208873
-202.68961
-103.50218
0
-101.02707
0
0
0
0
0
0
0
0
0
-161.23083
0
0
-99.781625
-191.0158
-208.60212
-92.902638
0
0
0
0
0
0
0
0
0
0
0
0
0
0
0
0
0
0
0
0
0
-113.01827
-137.97491
-204.86135
0
-210.7321
-110.22283
0
-114.63596
-202.49815
-97.802665
-216.89098
-219.30596
-106.2153
-114.43752
0
0
0
0
0
0
0
0
0
0
0
0
-96.417451
0
0
0
0
0
0
0
0
0
0
0
0
0
0
0
0
0
0
0
0
-119.5139
-134.27699
0
0
0
0
-88.604111
-104.31465
0
0
0
0
0
0
0
0
0
0
0
0
0
0
0
0
0
0
0
0
0
-104.75361
0
0
0
0
0
0
0
0
0
0
0
0
0
0
0
0
0
0
0
0
-109.9924
0
0
0
0
0
0
0
0
0
0
0
0
0
0
0
0
0
0
0
0
-52.783093
-59.186339
-51.46678
0
0
-63.848024
-48.552224
-67.164182
-97.674011
-91.591819
-84.56784
-84.607101
-72.176939
-78.637102
-45.652736
0
0
0
0
0
-52.649155
-48.779111
0
-59.083229
0
-51.805214
0
-55.313751
0
0
0
0
0
0
0
0
0
0
0
0
0
0
0
-139.80967
-97.682638
-109.4998
0
-99.972913
-115.06598
0
0
0
0
0
0
0
0
0
0
0
0
0
0
0
0
0
0
0
0
0
0
0
0
0
0
0
0
0
0
0
0
0
0
0
0
0
0
0
0
0
0
0
0
0
0
0
0
0
0
-54.403279
0
0
0
0
0
0
0
0
0
0
0
0
0
0
0
0
0
0
0
0
0
0
0
0
0
0
0
0
0
0
0
0
0
0
0
0
-150.94319
-102.86803
-112.60506
0
-128.04906
0
0
0
0
0
0
0
0
0
0
0
0
0
0
0
0
0
0
0
0
0
0
0
0
0
0
0
0
0
0
0
0
0
0
0
0
0
0
0
0
0
0
0
0
0
0
0
0
0
0
0
0
0
0
0
0
0
0
0
0
0
0
0
0
0
0
0
0
0
0
0
0
0
0
0
0
0
0
0
0
0
0
0
0
0
0
0
0
-154.83254
-163.77209
-141.00625
-170.35911
-161.56878
-165.63249
-143.92879
-113.88448
0
0
0
-100.33922
-100.30246
0
-125.79094
-114.87621
0
0
-131.41162
-117.53644
0
-134.59036
-94.77902
-89.850339
-133.13742
-141.40208
-135.72337
-90.309061
-162.10862
-156.5931
-179.58311
-175.13612
-166.00713
-149.61039
-182.61517
-126.28422
0
-90.985804
-133.69717
-116.43489
-137.1481
-84.782856
-172.93273
-180.79857
-177.94575
-173.8691
-182.1471
-174.03336
-181.34369
0
0
0
0
0
0
0
-110.21811
-107.97629
-98.876794
-127.58149
-122.07946
-91.518897
-115.78487
-79.294294
0
0
0
-63.613597
0
-79.866966
-78.5883
-69.527753
-35.994782
-49.050056
-64.038554
-82.73577
-46.386035
-95.042656
-58.960339
-70.30067
-111.69538
-110.89459
-96.1362
-58.173758
-133.6079
-144.22399
-158.67718
-156.16494
-153.6024
-141.30115
-135.49984
-96.508821
0
0
0
-112.105
0
-97.655352
-131.34277
-138.63005
-151.68121
-152.67765
-151.26563
-137.97867
-132.85092
-110.66485
-64.397185
-78.352018
-117.57263
-68.433154
-122.02686
-104.51842
-169.4277
-169.25236
-80.262867
-124.95361
-124.78089
-153.08291
-146.67986
-159.73778
-162.55268
-154.44768
-165.68814
-144.66882
0
0
0
0
0
0
0
0
0
0
0
0
0
0
0
0
0
0
0
0
0
0
0
0
0
0
0
0
0
0
0
0
0
0
0
0
0
0
0
0
0
0
0
0
0
0
0
0
0
0
0
0
0
0
0
0
0
0
0
0
0
0
0
0
0
0
0
0
0
0
-97.925105
-126.47824
-100.30472
0
0
0
0
0
0
-128.62769
-113.79865
-104.99212
0
0
0
-92.188897
0
0
0
0
0
0
0
0
0
0
0
0
0
0
0
0
0
0
0
0
0
0
0
0
0
-90.899944
0
0
0
0
0
0
0
0
0
0
0
0
0
0
0
0
0
0
0
0
-139.30125
-140.68335
-106.10864
0
-103.66627
-131.87646
0
0
0
0
0
0
0
0
0
0
0
0
0
0
0
0
0
0
0
0
0
0
0
0
0
0
0
0
0
-120.00501
0
-103.08601
-112.59455
-131.29808
0
0
0
0
-21.703602
0
0
0
-151.00336
-147.12174
-166.29698
-175.38373
-139.89203
-157.74403
-170.209
-129.94348
0
-96.814241
-121.11613
-120.19978
-155.69968
-90.705244
0
0
0
0
0
0
0
0
0
0
0
-88.058256
0
0
0
0
0
0
0
0
0
0
0
0
0
0
0
0
-26.996577
-35.157297
-37.214902
-30.032129
-29.621777
-33.915218
-27.492703
0
0
0
0
0
0
0
0
0
0
0
0
-10.450231
0
-34.225063
-42.490406
-40.1175
-32.304314
-32.00968
-42.651641
-34.301276
0
0
0
0
0
0
0
0
0
0
0
0
0
0
-129.23669
0
0
0
0
-128.17559
-124.36413
0
0
0
0
0
0
0
-91.770424
-106.20527
-131.96906
-111.01857
0
-113.10045
-109.88462
-50.069577
-46.688679
-48.039165
-62.369121
-43.256034
-56.643301
-59.090066
-63.53596
-75.912705
-58.902803
-49.723647
-67.221936
-64.275021
-53.454309
0
0
0
0
0
0
0
0
0
0
0
0
0
0
-28.494878
-39.693888
-36.146674
-30.433645
-27.991537
-37.127028
-30.827984
0
0
0
0
0
0
0
-84.152644
-113.1491
-89.764602
-78.338855
-81.922546
-72.544292
-98.491953
0
0
0
0
0
0
0
-116.89003
-129.7164
-132.84113
-112.64532
-115.01165
-133.70117
-112.09955
-67.231988
-51.180483
-48.955056
-63.026061
-61.756928
-51.487724
-63.673856
0
0
0
0
0
0
0
0
0
0
0
0
0
0
0
0
0
0
0
0
0
0
0
0
0
0
0
0
0
0
0
0
0
0
0
0
0
0
0
0
0
0
-143.79876
-126.23732
-153.16661
-176.30612
-129.84113
-166.1448
-148.7929
-65.043491
-51.963681
-50.766972
-62.681317
-53.243968
-61.94291
-63.321747
-162.2442
-184.01316
-159.25523
-194.80163
-162.51634
-180.24515
-164.25445
-67.360996
-82.226633
-70.404774
-59.954216
-69.416247
-57.007257
-70.644764
-11.765185
0
-10.018071
0
-10.885833
-10.781425
-8.7291199
-34.70598
-41.660643
-42.778424
-32.578451
-34.370724
-32.832328
-43.041955
-175.37749
-161.53099
-168.86884
-180.42918
-190.83766
-176.75639
-197.17707
-95.555752
-113.17307
-111.41634
-97.657381
-83.092861
-98.737274
-82.370965
-165.97348
-152.42826
-153.05699
-180.41678
-152.95586
-166.2367
-180.22715
-119.53074
-108.4502
-165.80354
-105.91713
0
-137.15828
-147.49037
-136.61848
-150.99256
-147.13831
-200.08846
-163.62123
-119.06174
-168.27151
-151.40856
-113.46722
-121.13033
-146.88378
-168.00073
-178.00826
-140.83184
-157.61258
-138.89848
-174.86308
-114.84975
-176.22193
-158.05427
-116.6128
-187.6044
-200.94021
-170.18857
-212.8315
-212.79888
-177.01432
-184.99106
0
0
0
0
0
0
0
0
-106.63057
-79.323902
-73.82345
0
-79.425862
-74.866641
0
0
0
0
0
0
0
-121.76086
-118.65334
-137.3136
-158.84356
-126.91531
-148.62152
-144.27852
-134.05368
-180.65663
-154.51002
-166.91063
-168.32674
-153.68208
-184.34621
-176.60702
-185.04805
-185.51258
-171.27932
-169.11136
-186.78407
-177.15839
-172.95772
-143.65364
-165.23001
-172.72072
-165.17655
-161.20395
-175.92112
0
0
0
0
0
0
0
0
0
0
0
0
0
0
0
0
0
0
-26.196274
0
0
0
0
0
0
0
0
0
0
0
0
0
0
0
0
0
0
0
0
0
0
0
0
-23.213674
-17.065777
-16.36891
-18.031014
-19.59581
0
0
0
0
0
0
0
0
-124.48439
-101.56897
-95.090333
-102.75451
-127.10377
-129.00457
-102.49983
0
0
0
0
0
0
-79.858827
-87.480174
0
-90.090606
0
0
-84.688385
-93.401752
-110.79053
-119.78155
-135.23347
-102.0399
-135.58154
-96.285665
-113.6475
-108.09547
-123.11201
-104.39713
-128.92552
-130.40272
-103.149
-110.36304
0
0
0
0
0
0
-91.685437
0
0
0
0
0
0
0
0
0
0
0
0
-114.70671
-114.64688
0
0
0
-100.35646
0
0
0
0
0
0
0
0
0
0
0
0
0
0
0
0
0
0
0
0
0
0
-94.353255
0
0
0
0
-84.096678
0
-99.583002
0
0
0
0
-89.1305
0
0
0
0
0
0
0
0
-41.055416
-32.583254
-28.271365
-30.417196
-23.978101
-35.190722
-18.86363
0
-14.130379
0
-15.598729
-16.313809
0
-24.258878
-26.794456
-24.811875
-18.828055
-21.284647
-29.796901
-20.524432
-159.60399
-171.71429
-167.84326
-175.66348
-184.73471
-177.66246
-178.53263
-154.37394
-155.82292
-166.12562
-165.506
-150.27067
-155.7716
-148.88208
-175.56736
-156.53409
-169.95664
-167.51164
-150.18101
-170.77338
-149.1275
-177.26585
-146.77711
-159.16234
-178.57401
-161.45504
-176.56676
-173.9422
-161.71709
-142.52757
-134.16335
-149.59704
-154.39404
-141.44883
-155.51142
-177.09161
-189.64916
-175.41138
-184.78072
-183.21231
-179.10918
-173.51504
0
0
0
0
0
0
0
0
0
0
0
0
0
0
-150.85658
-120.5593
-117.14234
-144.98864
-185.96907
-178.80855
-146.78676
0
0
0
-79.797258
0
0
0
-85.09212
0
0
-100.33662
0
-107.63273
0
-113.39376
-84.122013
-135.58806
-83.908885
-121.13951
0
-126.42804
-130.49582
-127.41867
-169.87107
-106.62691
-163.6355
-99.019426
-141.75618
-157.26877
-196.96689
-171.90095
-193.99436
-187.25717
-158.94219
-170.19441
-88.56247
0
0
-68.748501
0
0
-98.939214
-102.02888
0
0
-110.79191
-104.16355
-128.77954
0
0
0
0
0
0
0
0
-100.47388
0
0
0
0
0
-111.02058
-123.71114
-117.23903
-104.36333
-151.03988
-142.4512
-94.806732
-134.1936
0
0
0
0
0
0
0
0
0
0
0
0
0
0
0
0
0
0
0
0
0
0
0
0
0
0
0
0
0
0
0
0
0
0
0
0
-94.208022
-70.222783
-68.716801
0
0
0
0
0
0
0
0
0
0
0
0
0
0
0
0
0
0
0
0
0
0
0
0
0
0
0
0
0
0
0
0
0
0
0
0
0
0
0
0
0
0
0
0
0
0
0
-15.038396
0
0
0
0
0
0
0
0
0
0
0
0
0
0
0
0
0
0
0
0
0
0
0
0
0
0
-29.819462
0
0
0
0
-23.916675
-21.42362
-32.184835
-23.814049
0
0
-26.77792
-24.38423
-20.688329
-24.251216
-18.342392
-15.643309
0
-23.765266
-21.204353
0
0
0
0
0
0
-21.962643
0
0
0
0
0
0
0
0
0
0
0
0
0
0
0
0
0
-59.042774
0
-46.614419
0
0
0
0
0
0
0
0
0
0
0
0
0
0
0
0
-68.627096
-73.90521
0
-57.204716
0
0
0
0
0
0
0
0
0
-14.465552
-13.722732
-17.445567
-18.957183
-13.293839
-18.860614
-14.688517
0
0
0
-16.674643
0
0
-18.794017
-37.056606
-44.83896
-50.41801
-39.128752
-40.600286
-46.205041
-36.535631
-38.50148
-40.259704
-32.999083
-54.052347
-32.51092
-42.729877
-48.584564
-29.068112
-27.025416
-21.637307
-23.851812
-26.599427
-23.741597
-29.111401
-31.452363
-25.106774
-27.042916
-20.966455
-26.827039
-34.078198
-24.407629
-43.895467
-59.807105
-63.323346
-65.302574
-50.373912
-50.759915
-56.069962
0
-93.757794
0
0
-102.38803
-121.11555
0
0
0
0
0
0
0
0
-107.39918
0
0
0
-150.89192
-133.51652
-131.35234
-134.89938
-178.56712
-172.28424
-157.50057
-154.20256
-167.77524
-138.93236
0
0
0
0
0
0
0
0
0
0
0
0
0
0
-109.02908
-114.7817
-141.53773
0
-137.74757
-113.72484
0
-139.30082
-141.83152
-151.63774
-143.32721
-168.15407
-157.7154
-183.77843
-173.10741
-171.83157
-147.83777
-166.17634
-163.42465
0
-119.63674
-94.34605
-124.40238
-139.67442
-146.84071
-116.79778
0
0
0
0
0
0
0
-120.98667
0
-95.834046
-134.60739
-159.80357
-149.50417
-151.00953
-173.33547
-191.98005
-201.65377
-186.60106
-198.98796
-180.99922
-180.34301
0
0
0
0
-129.77219
0
0
0
0
0
0
0
-137.79566
0
-154.33135
-156.75864
-182.76788
-148.86121
-173.73164
-163.93187
-139.40182
-179.86405
-202.96452
-192.03829
-186.10501
-180.04916
-185.73941
-204.19948
-130.05474
0
0
-126.64504
-130.05697
0
-125.6129
-163.00348
-144.98354
-186.75538
-156.73076
-183.07687
-164.78053
-143.77718
-132.67013
0
0
0
-139.31035
0
-123.73622
-138.20024
-153.62262
0
0
-138.05743
-154.00078
0
-173.57373
-182.1947
-177.58467
-161.88831
-182.30026
-186.39479
-163.80468
-163.13589
-182.39845
-146.91927
-157.59918
-163.56509
-182.12648
-144.96178
-177.06666
-187.5972
-181.87776
-173.08649
-177.35831
-177.59569
-174.63597
-177.33723
-173.92221
-158.90315
-157.74527
-164.93866
-175.42432
-180.75397
-179.27203
-183.78677
-182.74894
-166.4367
-179.32137
-170.60011
-182.76565
-180.27597
-168.89052
-180.37453
-164.54373
-178.44921
-171.70013
-185.74585
-178.28815
-171.13278
-169.12679
-165.1786
-142.10027
-160.37836
-174.02016
-168.59143
-167.93912
-163.40542
-142.80382
-160.51175
-146.95442
-177.29316
-187.9693
-160.73255
-142.78318
-182.34842
-163.83676
0
0
0
0
0
0
0
0
0
0
0
0
0
0
-104.35212
0
-125.408
-121.35
-137.08914
-88.330075
0
0
0
0
0
0
-144.46887
0
-129.90687
-177.13634
-140.58673
-140.58299
-164.68076
-152.81948
-110.90089
-120.14903
-146.0322
0
-131.09134
-117.48813
-149.02149
-97.03112
0
0
0
0
0
0
0
0
0
0
0
0
0
0
0
0
0
0
0
0
0
0
0
0
0
0
0
0
0
0
0
0
0
0
0
0
0
0
0
0
0
0
0
0
0
0
0
0
0
0
0
0
0
0
0
-88.016472
-92.425879
-123.43957
-99.130877
-99.414054
-85.909824
-109.07676
-106.99515
0
0
0
0
0
0
0
0
0
-87.001166
0
0
0
-97.055894
0
0
0
-83.920736
0
-69.142365
-88.374516
0
0
0
0
0
0
0
0
0
0
0
0
0
0
-37.349728
-39.445426
0
0
0
0
-48.119458
-39.38636
-41.57858
0
-41.586774
-32.616768
0
-50.195725
-58.688304
-79.722203
-83.217073
-86.379765
-72.320398
-68.225319
-73.470604
0
0
0
0
0
0
0
-43.298915
0
0
-71.203564
0
0
-56.832301
-46.682723
0
-48.184545
-72.649345
0
-58.408272
-60.62222
0
0
0
0
0
0
0
-52.060251
0
-47.627538
-40.279422
-35.228645
-30.670317
-44.176826
0
0
0
0
0
0
-44.409733
0
0
0
0
0
0
0
-28.524022
0
0
0
0
0
-23.849877
-40.899971
-55.560475
-45.677134
-37.02597
-34.645147
-52.776798
-43.58482
-32.176521
0
0
-34.661435
0
-28.374399
-36.760909
-33.325441
-29.846886
-21.586604
-30.860601
-25.831067
-27.839209
-36.688905
0
0
0
0
0
0
0
0
0
0
0
0
0
0
0
0
0
0
0
0
0
0
0
0
0
0
0
0
0
0
0
0
0
0
0
0
0
0
0
0
0
0
0
0
0
0
0
0
0
0
0
0
0
0
0
0
0
0
0
0
0
0
0
0
0
0
0
0
0
0
0
0
0
0
0
0
0
0
-12.648571
-12.977852
-16.621368
0
-13.541023
-13.292338
0
0
0
0
0
0
0
0
-15.793351
-15.23432
-17.827113
0
-14.637877
-14.23361
0
0
0
0
0
0
0
-20.765341
0
0
0
-22.377833
0
0
-30.358692
-42.065038
-42.609262
-34.833173
-32.463057
-39.557912
-32.686917
-28.265313
-34.898931
0
0
-25.935786
0
-40.602214
-22.236529
-24.721239
-15.965865
-20.231153
-21.715931
-16.657676
-25.176911
-19.085873
0
0
0
-18.406275
0
0
-28.751752
0
-37.594407
0
-28.693207
0
-40.241396
-24.06198
-19.886572
-28.931957
-21.836692
-25.940881
-18.244861
-27.022825
0
0
0
0
0
0
0
0
0
0
0
0
0
0
0
-130.2275
-149.97136
-121.0945
-122.26479
0
-116.85422
0
0
0
0
0
0
0
0
0
0
-131.66175
0
-107.93089
0
0
0
-96.248517
0
-91.836301
0
0
0
0
0
0
0
0
0
0
0
0
0
-93.944548
-154.1903
-124.89555
-134.34099
-107.762
-144.5834
-124.2987
-98.717034
-102.0543
0
0
0
0
0
0
0
0
0
0
0
0
0
0
0
0
0
0
0
0
0
0
0
0
0
0
0
0
0
0
0
0
0
0
0
0
0
0
0
0
0
0
0
0
0
-53.230874
0
-49.934206
0
-126.94988
-101.41379
-95.570475
-87.041035
-122.86125
-96.314429
-113.83869
0
0
0
-61.218706
0
-70.808569
0
-56.258238
0
0
-79.106536
-71.264616
0
-66.52957
-66.447999
-68.700252
-56.463643
-75.740231
-61.123599
-65.793119
-82.926048
-46.062542
0
0
-44.289606
-42.251097
0
-53.436591
-78.252245
-112.25947
-93.275531
-94.299269
-91.545739
-80.132257
-100.34272
0
0
0
0
0
0
0
0
0
0
0
0
0
0
0
0
0
0
0
0
0
0
0
0
0
0
0
0
0
0
0
0
0
0
0
0
0
0
0
0
0
0
0
0
0
0
0
0
0
0
0
0
0
0
0
0
0
0
0
0
0
0
0
0
0
0
0
0
0
0
0
0
0
0
0
0
0
0
0
0
0
0
0
0
0
0
0
0
0
0
0
-106.37315
0
-96.139548
0
-99.917816
-103.54547
0
-118.7342
-129.35383
-134.97143
-107.60967
-116.52506
-134.54721
-111.72174
-112.94665
-124.23972
-102.47913
-112.32874
-111.02123
-105.05149
-125.04183
-100.0726
0
0
0
-97.661106
0
0
-103.30801
0
-94.043543
0
-100.20178
-99.924937
0
-114.85148
-105.44935
-127.44929
-113.17782
-112.65857
-106.63122
-125.84443
-102.36936
0
0
0
-97.512345
0
0
-90.139865
-102.35611
-74.503018
-88.67513
-77.728249
-96.558851
-99.259572
-69.553105
-53.592156
-55.070827
-70.700361
-53.578215
-67.820798
-65.973466
-72.524414
-47.769073
0
0
-60.061564
-56.518336
-77.454589
-82.531678
-80.468704
-89.38692
-98.131567
-75.522184
-95.024017
-81.318756
-85.944686
0
0
-83.018871
-71.725673
-91.600242
-93.915767
-74.24179
-60.198671
-50.385294
-58.58017
-56.393956
-63.97308
-78.197217
-85.841598
-95.588801
-89.025471
-99.92838
-82.715194
-98.439757
-83.696117
0
0
0
0
0
0
0
0
0
0
0
0
0
0
0
0
0
0
0
0
0
0
0
0
0
0
0
0
0
0
0
0
0
0
0
0
0
0
0
0
0
0
0
-107.23324
0
0
0
-132.51643
0
0
0
0
0
0
0
0
-163.41109
-146.12849
-191.0329
-173.52315
-168.45673
-146.12623
-189.13063
0
0
0
0
0
0
0
-142.60143
-137.84813
-174.93659
-140.19578
-156.39355
-165.07169
-115.92128
0
0
0
0
0
0
0
0
0
0
-143.32327
0
0
-150.76522
-120.44333
-110.94332
-101.03602
-59.371004
-78.273564
-132.68349
-98.06782
-144.25247
-167.61032
-153.56277
-112.80836
-174.53249
-123.47286
-130.97718
-161.87728
-147.09128
-186.01938
-162.66981
-187.27603
-167.6538
-136.10822
-106.35933
0
0
0
-68.283108
-87.211603
-92.655367
0
0
0
0
0
0
0
0
0
0
0
0
0
0
0
0
0
0
0
0
0
0
0
0
0
0
0
-126.07966
-122.57072
-144.35631
-170.34596
-164.67378
-171.90716
-152.67921
-170.62436
-166.74991
-128.89489
-147.0213
-149.73001
0
-86.688183
0
0
0
-73.3944
0
0
0
0
0
0
0
0
0
0
-113.94766
0
0
-90.031808
0
0
-120.70723
-115.64049
-128.26923
-91.343671
0
-103.90077
0
0
0
0
0
0
0
0
0
0
0
0
0
0
-152.13128
-136.6911
-138.81497
-137.50759
-107.05456
-124.24173
-96.430159
-98.969848
-111.15944
-133.91725
-111.85166
-124.31108
0
0
0
0
0
0
0
0
-76.603776
0
0
0
0
0
0
0
0
0
0
0
0
0
0
0
0
0
0
0
0
-125.10623
0
-110.21546
-130.18915
-110.99504
-127.29743
0
0
0
0
0
0
0
-110.61262
0
0
0
-92.73916
-111.64615
0
-114.65786
-95.348006
-113.30491
0
-112.61152
0
-128.18489
0
0
0
0
0
0
0
-126.67572
-136.9791
-127.43622
-137.94638
-128.32991
-128.24338
-138.56038
0
0
0
0
0
0
0
-119.66797
-109.78778
-107.82894
-91.743296
-123.91239
-106.37015
-104.17147
0
0
-128.31181
0
-126.93272
0
0
-129.65515
-131.10724
-131.73544
-119.16223
-131.63461
-123.59113
-116.54881
0
0
0
0
0
0
0
-133.72257
-123.63323
-135.90851
-133.74734
-133.70161
-136.25236
-120.05481
0
0
0
0
0
0
0
-115.57853
-88.828225
-99.968438
0
-105.25673
-103.05912
0
-96.269916
-79.82265
-93.55747
-121.25225
-114.58052
-103.78206
-109.09799
-123.26385
-106.40928
-77.34058
-94.580121
-90.903452
0
0
-75.476523
0
0
0
0
0
0
0
0
0
0
0
0
0
0
0
0
0
0
0
0
0
0
0
0
0
0
-73.084297
0
0
0
0
0
0
0
0
0
0
0
0
-126.81646
-137.30906
-162.76906
-134.58526
-117.67374
-148.18159
-141.60928
-83.581598
-129.86448
-117.42185
-103.95228
0
-112.73588
-95.946813
0
0
0
0
0
0
0
0
0
-72.694087
-56.555681
0
0
-81.215011
0
0
0
0
0
0
0
-79.295228
-119.35563
-92.848045
-77.377014
0
-107.0216
-87.61327
0
-91.900888
0
-61.583272
0
0
-87.081165
0
0
0
0
0
0
0
0
-140.44608
-122.92802
-101.64615
0
-101.62463
-124.03228
0
0
0
0
0
0
0
0
0
0
0
0
0
0
0
0
-97.240427
0
-102.94443
0
0
0
-141.99117
0
-125.12388
0
-124.76138
0
0
-107.96828
0
-87.822226
0
-106.54756
0
0
0
0
0
0
0
0
-127.19953
-127.60643
-133.214
-136.48619
-121.67124
-122.53886
-136.38422
-122.61358
-102.35391
-85.338974
-96.395585
-102.59725
-107.22577
-122.14948
-130.19012
-140.14149
-110.72164
-119.00226
-123.49107
-115.02763
-142.84528
-147.50991
-177.78677
-164.66172
-157.40766
-150.55882
-165.33058
-152.42313
-117.01701
-108.44504
-87.210352
-98.626585
-105.16573
-104.93758
-110.99919
-134.2979
-123.19361
-117.84671
-141.2298
-119.19467
-138.10189
-141.95945
-131.10095
-127.79875
-105.55026
-134.76448
-116.11064
-138.39549
-128.33834
-97.943227
-126.31689
-123.11552
-125.30616
-108.56737
-110.70945
-112.59446
-71.350751
-50.634093
-66.545297
-59.168431
-60.056943
-60.530601
-77.854759
-81.609225
-80.226198
-94.309146
-97.870569
-77.690146
-98.368058
-80.001472
-83.142743
-109.14523
-76.938419
-81.304994
-69.120644
-92.102072
-97.654274
-85.491749
-100.61004
-68.708015
-86.22059
-73.054284
-89.545016
-99.369278
-109.66366
-140.42014
-157.89577
-110.13609
-150.5939
-102.94694
-116.05499
0
0
0
0
0
0
0
-149.50797
-157.41291
-140.57501
-146.30393
-146.90351
-149.77765
-143.82661
-159.12499
-173.63382
-153.88689
-141.41817
-146.58526
-166.12709
-164.57883
-146.63918
-127.18924
-126.97557
-110.18572
-133.4215
-143.50604
-136.05039
-159.46745
-193.53664
-166.41076
-163.69434
-154.31257
-174.21367
-166.70053
-154.98311
-161.58954
-156.17578
-155.35355
-153.08078
-152.79839
-160.23801
-147.02307
-137.16971
-119.77318
-141.37518
-136.87254
-144.56252
-142.11373
-56.21044
-51.283904
-60.697523
-51.427331
-39.470592
-43.697359
-47.770053
-85.54321
-81.331311
-75.842338
-64.459165
-77.405476
-68.554271
-73.284997
-49.783986
-57.672197
-39.798857
-51.443951
-46.910334
-42.246793
-58.864534
-42.509292
-33.604321
-30.21976
-33.564908
-36.517675
-39.736505
-35.576089
-13.165408
0
-12.941956
-11.1188
-14.602097
-11.840625
-9.9055698
-15.516218
-14.144822
-19.034713
-19.125249
-14.87091
-14.856677
-19.467988
-17.054959
-22.918559
-17.355688
-20.538418
-18.636587
-16.081782
-21.167598
-29.138467
-27.424027
-23.926484
-23.470101
-29.134086
-27.796486
-24.153228
-31.184444
-28.140983
-31.59765
-25.099056
-29.652627
-33.356594
-26.119414
-182.41253
-177.72341
-175.06319
-183.19174
-194.49051
-183.69601
-200.15054
-162.10777
-166.84385
-168.43418
-169.04863
-159.66621
-165.91507
-157.87436
-177.99014
-165.20742
-173.65633
-171.58058
-153.08249
-173.42364
-155.85708
-95.237684
-113.91242
-109.31313
-96.015263
-87.438447
-82.301946
-99.650434
-130.73627
-144.91691
-128.1802
-114.75451
-135.91245
-132.49591
-116.93911
-125.52309
-141.74367
-125.13557
-112.03769
-128.25041
-129.66375
-111.9618
-83.336872
-69.215344
-76.417283
-61.61607
-83.631117
-68.825831
-76.396704
-100.53994
-121.96521
-112.30544
-95.231989
-119.22196
-102.22246
-93.930686
-165.69488
-152.2441
-155.54158
-180.06137
-169.50727
-152.86114
-180.38443
-142.57683
-139.85413
-120.17627
-119.07739
-139.58885
-142.72299
-119.12309
0
0
0
0
0
0
0
0
0
0
0
0
0
0
0
0
0
0
0
0
0
0
0
0
0
0
0
0
0
0
0
0
0
0
0
0
0
0
0
0
0
0
0
0
0
0
0
0
0
0
0
0
0
0
0
0
0
0
0
0
0
0
0
0
-85.271332
0
0
0
0
-108.85418
-144.43978
-184.00066
-159.5117
-176.26759
-152.32283
-145.53538
-175.42977
0
0
0
0
0
0
-101.75097
-112.35815
0
-92.180659
-128.21412
0
-121.67056
-113.80122
-106.55089
0
-136.36974
0
-111.58168
0
-129.99299
0
0
0
0
0
0
0
0
0
0
0
0
0
0
-111.89049
-120.39863
0
-102.11911
0
-93.296167
-138.85856
-104.14774
-109.38993
-89.680713
0
-126.31955
0
-86.285513
-148.93917
-213.19528
-167.78438
-177.76124
-174.68305
-147.03951
-179.89845
-117.15992
0
-104.42794
-134.72397
-138.36575
0
-115.40678
0
0
0
0
0
0
0
-116.53091
0
-102.64729
-139.11986
0
-113.88246
-142.4657
0
0
0
0
0
0
0
-164.67798
-123.41703
-125.78929
-150.74883
-187.9472
-148.61282
-189.65252
-85.598298
0
-89.678908
-113.44461
0
-109.01685
0
-87.088021
0
-88.738642
-112.54614
0
-109.8836
0
-127.85123
-86.018267
-139.4467
-99.25689
-124.37855
-86.063497
-144.07454
-160.64874
-179.5135
-199.0869
-171.61014
-188.4097
-155.98565
-175.12183
-163.73597
-198.29786
-174.30729
-209.87127
-161.23646
-199.72471
-177.42337
-130.26381
-80.565222
-96.902196
-144.68965
-125.73783
-84.279363
-148.0012
0
0
0
0
0
0
0
0
0
0
0
0
0
0
0
0
0
0
0
0
0
0
0
0
0
0
0
0
0
0
0
0
0
0
0
0
0
0
0
0
0
0
0
0
0
0
0
0
0
0
0
0
0
0
0
0
0
0
0
0
0
0
0
0
0
0
0
0
0
0
0
0
0
0
0
0
0
-142.86706
-150.28784
-112.95495
-96.363395
-140.3574
-152.06854
-96.513886
-157.24222
-139.92643
-176.11923
-115.24693
-153.12522
-177.891
-118.08542
-188.05839
-195.38943
-207.89574
-189.63155
-197.96246
-188.42234
-189.25511
-111.64307
-76.990205
0
0
-111.6322
0
-77.37976
-187.85089
-185.02497
-199.96249
-211.23431
-183.48541
-200.86624
-189.07036
-142.80474
-111.61465
-150.72443
-95.52331
-142.85732
-151.31184
-95.998001
-111.65261
0
-76.128061
0
-109.48158
0
-77.652323
-161.2439
-154.8111
-113.87253
-115.09732
-160.39419
-114.88195
-156.1614
-190.65991
-204.23832
-209.9831
-187.17543
-213.44129
-184.66978
-189.47755
-160.4654
-140.90721
-101.33134
-114.84044
-150.62793
-156.90172
-113.73622
-194.39219
-226.87832
-220.31275
-191.65977
-225.62362
-194.50263
-191.36777
-164.23409
-110.56123
-165.53677
-104.13117
-160.94103
-165.49549
-112.30869
-159.78915
-114.92896
-115.81991
-154.25206
-158.57532
-115.51247
-155.10435
0
0
0
0
0
0
0
0
0
0
0
0
0
0
0
0
0
0
0
0
0
0
0
0
0
0
0
0
0
0
0
0
0
0
0
0
0
0
0
0
0
0
0
0
0
0
0
0
0
0
-89.851001
0
0
0
0
0
-119.19255
0
0
0
-122.92125
0
0
-129.49184
-146.32545
-128.06204
-88.187578
-154.41535
-100.23774
-116.22519
-143.79443
-113.84883
-160.2345
-137.11274
-144.79007
-163.33521
-112.99526
-103.24954
0
0
0
0
0
-86.340084
0
0
0
0
0
0
0
0
0
0
0
0
0
0
0
0
-97.474493
0
0
0
0
0
0
0
-106.38457
0
0
0
0
0
0
0
0
0
0
0
0
0
0
0
0
0
0
0
0
0
0
0
0
0
-107.17946
-76.415992
-74.650497
0
-79.658629
-76.063053
0
0
0
0
0
0
0
0
0
0
0
0
0
0
0
0
0
0
0
0
0
0
0
0
0
0
0
0
0
0
0
0
0
0
0
0
-137.32423
-84.450399
0
-106.0141
-101.61536
0
0
0
0
0
0
-73.218619
0
0
0
0
0
0
0
0
0
0
0
0
0
0
0
0
0
0
0
0
0
0
-91.058225
-90.137796
0
0
0
0
0
0
0
0
0
0
0
0
0
0
0
0
0
0
0
0
0
0
0
0
0
0
0
0
0
0
0
0
0
0
0
0
0
0
0
0
0
0
0
0
0
0
0
0
0
0
0
0
0
0
0
0
0
0
0
0
0
0
0
0
0
0
0
0
0
0
0
0
0
0
0
-82.702211
0
0
0
0
0
0
0
0
0
0
0
0
0
0
0
0
0
0
0
0
0
0
0
0
0
0
0