/*--------------------------------*- C++ -*----------------------------------*\
  =========                 |
  \\      /  F ield         | OpenFOAM: The Open Source CFD Toolbox
   \\    /   O peration     | Website:  https://openfoam.org
    \\  /    A nd           | Version:  8
     \\/     M anipulation  |
\*---------------------------------------------------------------------------*/
/*   Windows 32 and 64 bit porting by blueCAPE: http://www.bluecape.com.pt   *\
|  Based on Windows porting (2.0.x v4) by Symscape: http://www.symscape.com   |
\*---------------------------------------------------------------------------*/
FoamFile
{
    version     2.0;
    format      ascii;
    class       polyBoundaryMesh;
    location    "constant/air/polyMesh";
    object      boundary;
}
// * * * * * * * * * * * * * * * * * * * * * * * * * * * * * * * * * * * * * //

11
(
    left
    {
        type            patch;
        nFaces          0;
        startFace       17639;
    }
    right
    {
        type            patch;
        nFaces          0;
        startFace       17639;
    }
    back
    {
        type            patch;
        nFaces          0;
        startFace       17639;
    }
    front
    {
        type            patch;
        nFaces          0;
        startFace       17639;
    }
    bottom
    {
        type            wall;
        inGroups        List<word> 1(wall);
        nFaces          174;
        startFace       17639;
    }
    top
    {
        type            patch;
        nFaces          33;
        startFace       17813;
    }
    tower
    {
        type            mappedWall;
        inGroups        List<word> 
2
(
wall
mappedPatch
)
;
        nFaces          789;
        startFace       17846;
        sampleMode      nearestPatchFace;
        sampleRegion    tower;
        samplePatch     buildings_to_air;
    }
    procBoundary9to5
    {
        type            processor;
        inGroups        List<word> 1(processor);
        nFaces          96;
        startFace       18635;
        matchTolerance  0.0001;
        myProcNo        9;
        neighbProcNo    5;
    }
    procBoundary9to6
    {
        type            processor;
        inGroups        List<word> 1(processor);
        nFaces          294;
        startFace       18731;
        matchTolerance  0.0001;
        myProcNo        9;
        neighbProcNo    6;
    }
    procBoundary9to7
    {
        type            processor;
        inGroups        List<word> 1(processor);
        nFaces          463;
        startFace       19025;
        matchTolerance  0.0001;
        myProcNo        9;
        neighbProcNo    7;
    }
    procBoundary9to8
    {
        type            processor;
        inGroups        List<word> 1(processor);
        nFaces          703;
        startFace       19488;
        matchTolerance  0.0001;
        myProcNo        9;
        neighbProcNo    8;
    }
)

// ************************************************************************* //
