/*--------------------------------*- C++ -*----------------------------------*\
  =========                 |
  \\      /  F ield         | OpenFOAM: The Open Source CFD Toolbox
   \\    /   O peration     | Website:  https://openfoam.org
    \\  /    A nd           | Version:  8
     \\/     M anipulation  |
\*---------------------------------------------------------------------------*/
/*   Windows 32 and 64 bit porting by blueCAPE: http://www.bluecape.com.pt   *\
|  Based on Windows porting (2.0.x v4) by Symscape: http://www.symscape.com   |
\*---------------------------------------------------------------------------*/
FoamFile
{
    version     2.0;
    format      ascii;
    class       scalarListList;
    location    "constant/vegetation";
    object      F;
}
// * * * * * * * * * * * * * * * * * * * * * * * * * * * * * * * * * * * * * //


398
(

582
(
0.0088349923
0.0025794155
0.0017412396
0.00027819586
0.00021865809
8.5912194e-05
4.8770932e-05
9.0254006e-05
3.4906866e-05
2.5278271e-05
1.8473063e-05
2.798992e-05
1.8269356e-05
0.001353751
0.0066463614
0.0031000264
0.00074322346
0.00010037696
9.8332224e-05
0.00022057259
0.00034207719
8.3880121e-05
2.2610874e-05
2.6938485e-05
2.0668044e-05
0.00017126502
2.5656544e-05
7.9718767e-05
6.2225244e-05
6.7993432e-05
1.7782282e-05
1.5736289e-05
0.0025845117
0.0034445522
5.5839013e-05
0.00089782883
0.00028067613
9.5192717e-05
0.00017696622
0.0042924326
0.0018832749
0.00041672257
0.00074489453
0.00057114373
0.0026954919
0.0014057464
0.0016484643
0.0010153463
0.00033962337
0.00060538747
0.00029646554
0.00021795465
0.00017522276
0.0098381963
0.0017640599
0.061904651
0.12985524
0.022835148
0.08218112
0.0092207988
0.0011850395
0.010152492
0.0063425369
0.0023003729
0.003385676
0.012015305
0.016874204
0.016564535
0.0019477868
0.0044537811
0.0085979888
0.0024856518
0.001921933
0.0010569555
0.0015258767
0.00083406223
0.0027958253
0.0017122385
0.0017285058
0.0018593529
0.00074998448
0.00043417924
0.00035239323
0.00075673069
0.0008153249
0.00079652189
0.00090559688
0.00046632272
0.024482003
0.023355483
0.043519184
0.0042906078
0.0038129885
0.0022860408
0.0026546649
0.003203074
0.00432887
0.0028536513
0.003941793
0.0030995063
0.0037249146
0.0041236311
0.0033459609
0.0031967689
0.0037343423
0.0011251205
0.0012421867
0.0011896421
0.0011731632
0.0010120691
0.00089065927
0.00096018714
0.00093738741
0.0010757474
0.0010762656
0.0011361464
0.001019394
0.0010563532
0.0010061703
0.0010970555
0.00097543951
0.0012873295
0.0013015863
0.0013635378
0.0012277644
0.0012377704
0.0011823206
0.0016281766
0.00099657667
0.0013037013
0.0014671105
0.0013682473
0.0014181823
0.001191198
0.0010312446
0.0011407729
0.0010438926
0.00079141242
0.00073610401
0.00083387447
0.00069982323
0.00082776565
0.0008346595
0.00089882644
0.00076962231
0.00087691608
0.0010065586
0.00095331562
0.00092526836
0.00074818757
0.00061881553
0.00066292011
0.00069682263
0.00051611038
0.00063662261
0.00054051169
0.00060646729
0.00049150094
0.0005391327
0.00057588906
0.00046171468
0.00047655631
0.00044186656
0.00066063868
0.00068311541
0.00072689341
0.00062321583
0.00068940262
0.00082885812
0.0010870571
0.00074424161
0.00055427773
0.0006408639
0.00058832998
0.00060116812
0.00051870483
0.00051955941
0.00048109393
0.00056104718
0.0013606606
0.0014232958
0.0014678936
0.0014041647
0.0016034846
0.0015900805
0.0014945126
0.0015082987
0.0014972673
0.0014456871
0.0014321632
0.001511217
0.0015188858
0.0014231506
0.0015613762
0.0014658517
0.0007607941
0.00080890928
0.00088325543
0.00083122549
0.0011289679
0.0010389548
0.00097107922
0.0010545958
0.00096137009
0.00098516589
0.00090516742
0.0010446222
0.00087943584
0.0009532187
0.00081946912
0.00089226769
0.0016013871
0.0015841758
0.001491207
0.0015070907
0.0015073822
0.0015525354
0.0014612114
0.0014179021
0.0014931426
0.001444704
0.0015097522
0.0014281067
0.0014619579
0.0013516401
0.0013965873
0.001417044
0.0012183244
0.0013033589
0.0012207777
0.0011391751
0.0014498336
0.0013812563
0.0012960246
0.0013623669
0.0012135047
0.0010687445
0.0011301026
0.0011505876
0.0012909532
0.0012944586
0.0013595199
0.0012267056
0.0030249317
0.0013108623
0.0012608589
0.0014455496
0.0013589591
0.0012995583
0.0014030349
0.0013830116
0.0014497984
0.0011443682
0.0012015267
0.001218203
0.0012801023
0.0007886064
0.00089474719
0.0010127033
0.00088772029
0.0010808749
0.00099385665
0.0011217722
0.0012172384
0.00054147977
0.00058826969
0.00064809528
0.0007189453
0.00067608256
0.00082186873
0.00078934346
0.0007943091
0.00094118075
0.00085896688
0.00095722129
0.00058492867
0.00062867822
0.00067385678
0.00069417202
0.0010331609
0.0010540961
0.0011161681
0.0011511464
0.0012615534
0.0011929714
0.0012305855
0.0013078062
0.0014150783
0.0014674551
0.0013989966
0.0014567478
0.0013199251
0.0013663198
0.001421507
0.0013692297
0.00055457882
0.00037967927
0.0010090448
0.00018959925
0.0092676771
0.00070324291
0.0002982491
0.00024111823
0.00039385474
0.00045703239
0.00010657298
0.00029775838
7.2166993e-05
0.00012027609
0.00020780959
0.024379942
0.0015847069
0.0010463819
0.0007031264
0.0010029426
0.0010590446
0.00081983728
0.0016329445
0.0012185475
4.8609193e-05
5.0292872e-05
5.6901058e-05
5.6340776e-05
5.7204455e-05
5.7238879e-05
0.0022996554
4.6845504e-05
4.5033619e-05
0.0018317507
0.0013858856
5.327229e-05
5.185851e-05
5.450651e-05
5.553674e-05
5.6367123e-05
5.6980695e-05
4.1060241e-05
4.3157421e-05
0.0010116683
0.00092688238
5.5218253e-05
5.3025323e-05
0.0023683319
0.0015505424
0.0022890799
0.0017148512
0.0014026788
0.0004134143
0.00032574982
0.00034404015
0.0003898511
0.00043273784
0.0003737716
0.00045205938
0.00035890481
0.00010953337
0.00013681398
0.0001117395
0.00013364774
8.7929434e-05
7.4563795e-05
6.8856315e-05
8.7390091e-05
8.9216566e-05
7.0523575e-05
6.9242967e-05
9.0824212e-05
0.00010744315
0.00012653363
0.00013047508
0.00010522603
0.00019884941
0.0001675422
0.00020506498
0.00016300984
0.00023414493
0.00027033382
0.00028433435
0.00022353671
0.00024258931
0.00030672657
0.00029560665
0.00025089616
0.00019259808
0.00015268253
0.00015847049
0.00018465929
0.00012523841
0.00010965529
0.00012786393
0.00010825299
0.00014478099
0.00017299668
0.00014881802
0.0001671276
8.1059689e-05
9.3834821e-05
9.3578936e-05
8.016285e-05
7.0286001e-05
5.4295953e-05
6.2665485e-05
6.7872345e-05
0.00025231727
0.00030434837
0.00026645361
0.00028660701
0.00022086857
0.00020069246
0.00019246068
0.00023186097
0.00036204379
0.00034510445
0.00032337475
0.00038806389
0.00040184692
0.00043231776
3.8072722e-05
0.0001394044
0.00011353659
0.00011474187
0.00014110647
7.2619232e-05
7.2672939e-05
9.3526765e-05
9.3429146e-05
7.162255e-05
7.2344739e-05
9.2188398e-05
9.3109221e-05
0.00011527987
0.00014174046
0.00014185309
0.00011513103
9.7173872e-05
8.2121121e-05
8.3923275e-05
9.9971738e-05
5.8791119e-05
5.6733256e-05
7.182797e-05
7.4429223e-05
8.6510759e-05
0.00010807515
0.00010354412
8.9872297e-05
5.4034308e-05
5.5039933e-05
6.8649964e-05
6.9842711e-05
6.1006412e-05
6.321828e-05
8.0363152e-05
7.736239e-05
6.7229841e-05
6.5316137e-05
8.3244429e-05
8.58905e-05
9.7643839e-05
0.00011324113
9.3698769e-05
0.00011851057
0.00010145856
0.00012827073
0.00010498018
0.00012357303
7.2196567e-05
7.1421826e-05
9.1735689e-05
9.2824976e-05
6.8909629e-05
7.0317284e-05
9.0189802e-05
8.8225511e-05
0.00011282429
0.00014076794
0.00011430359
0.00013882911
0.00011073819
0.00013245446
0.0001360063
0.00010810065
3.7742224e-05
4.8344849e-05
0.0022427391
0.0026987619
0.002008074
0.00068091414
0.00057705227
0.00064696966
0.00076957502
0.00039684612
0.00048158888
0.00054270454
0.0004408267
0.00017296899
0.00021344394
0.00024384657
0.0001763794
0.0002161265
0.00017836924
0.0001772595
0.00024244227
0.00032185106
0.00026133826
0.00026339497
0.00035826626
0.00011567458
0.00013653037
0.00015994053
0.00012053308
0.0001482886
0.00013249325
0.00012545909
0.00017504383
0.00018757097
0.00015954979
0.00016526142
0.00021602787
0.0003890967
0.00043926405
0.00052743867
0.00046376309
0.0004907516
0.00034158994
0.00029749379
0.00035091543
0.00040732428
0.00022110267
0.00025735267
0.000303404
0.00025602441
0.00017904394
0.00024473945
0.00017660067
0.00024256681
0.00016773903
0.00017269734
0.00023692066
0.00022931136
0.00014103336
0.00018801721
0.00014845098
0.00020059708
0.00016193283
0.00015545319
0.0002107123
0.00022087745
0.017185913
0.00037718848
0.00078986892
0.0030304961
0.0040647402
0.0063227088
0.022598789
0.016214228
0.013371431
0.0043112061
0.0017516759
0.002646199
0.00050343574
0.0009768816
0.00077271213
0.00018038906
0.00069928472
0.00051737758
0.0025506853
0.00019521638
0.00034622657
0.0009806976
0.015309362
0.010600336
0.00063891253
0.00028089901
0.00025947021
0.0013069667
0.018327567
0.00077246871
0.00023550862
0.00011513623
3.1985272e-05
0.00013620399
)


2133
(
8.1686828e-05
2.6133423e-05
0.0088476391
0.0044149123
0.0023258427
0.0015619903
0.0009296004
0.00073667811
0.00028396207
0.00016238229
0.00030089777
0.00011420093
8.3078413e-05
6.1278683e-05
9.2202241e-05
6.0318812e-05
0.00036630398
0.00039726138
0.00014739108
7.5761938e-07
6.1637915e-07
5.2174742e-07
5.3617168e-07
5.0793334e-07
5.8865655e-07
6.093736e-07
5.685635e-07
5.5150772e-07
3.8635693e-06
4.0548613e-06
1.3385175e-06
3.8333262e-06
4.2072299e-06
1.0118745e-06
1.4243005e-06
1.3705336e-06
1.2262851e-06
1.3287504e-06
1.1176416e-06
1.0159361e-06
1.073974e-06
1.1962908e-06
1.1497824e-06
5.8477853e-07
7.3070608e-07
7.2169655e-07
1.0747428e-06
4.208138e-06
1.2181955e-06
1.2994323e-06
1.3820575e-06
1.3640078e-06
1.3431629e-06
1.0692809e-06
1.1779734e-06
1.1281118e-06
4.9481483e-07
7.8632919e-07
6.3035113e-07
7.8886453e-07
1.0696642e-06
1.0092317e-06
1.067045e-06
2.0189555e-06
1.3980987e-06
1.590772e-06
1.4096811e-06
1.4998863e-06
1.5588577e-06
1.3349823e-06
1.2584864e-06
1.3707184e-06
1.4504216e-06
1.2919025e-06
1.4087811e-06
1.0731428e-06
1.0250405e-06
1.0790221e-06
1.1160141e-06
1.0431446e-06
1.0906279e-06
4.6669091e-07
4.8248502e-07
1.3018907e-06
1.1725294e-06
1.2731449e-06
1.2449399e-06
1.1582649e-06
1.2531648e-06
6.6027379e-07
4.2351742e-06
4.7478088e-07
7.1172674e-07
5.7643969e-07
7.3838051e-07
5.713367e-07
1.0728371e-06
1.173973e-06
1.1785948e-06
1.2496442e-06
1.2768071e-06
1.3102185e-06
1.2701672e-06
1.2300708e-06
1.3237258e-06
1.373212e-06
1.440009e-06
1.3361002e-06
1.0753901e-06
1.162403e-06
1.0617512e-06
1.1506204e-06
1.2303313e-06
1.0935143e-06
1.0999399e-06
1.1416879e-06
1.2279166e-06
6.4595066e-07
7.6528946e-07
8.177341e-07
7.9680947e-07
8.0549911e-07
1.1725185e-06
1.2292511e-06
1.7626457e-06
1.3456365e-06
1.2637711e-06
1.2753017e-06
1.3765154e-06
1.3585356e-06
1.3370823e-06
1.2974228e-06
1.2578037e-06
7.9568702e-07
5.6035854e-07
4.0468812e-07
4.2989185e-07
4.9153052e-07
4.7519289e-07
5.8030838e-07
4.2252335e-07
4.2253927e-07
4.20732e-07
7.8126712e-07
8.2929279e-07
8.1438403e-07
1.2987841e-06
1.2478698e-06
1.3064487e-06
1.304411e-06
0.00020286024
0.00012382329
6.5862496e-05
0.0001842366
6.2137109e-05
5.3409392e-07
6.1125928e-07
5.2142693e-07
6.5526728e-07
6.7091569e-07
7.9842623e-07
5.7685553e-07
5.9332727e-07
4.8625182e-07
4.5132573e-07
6.6448139e-07
5.8330719e-07
6.5858496e-07
5.474679e-07
5.8157677e-07
5.0960142e-07
6.1782505e-07
7.4651401e-07
7.091898e-07
7.1154812e-07
7.228117e-07
8.7137738e-07
8.9184007e-07
7.2873592e-07
7.6454182e-07
8.442755e-07
8.6357131e-07
7.5537746e-07
8.807646e-07
5.616201e-07
6.0517944e-07
4.9902329e-07
7.2888542e-07
8.6258626e-07
5.1878114e-07
6.4131398e-07
7.1969437e-07
3.5303659e-07
2.9633319e-07
6.8799179e-07
7.3678784e-07
8.4600154e-07
7.832912e-07
5.272835e-07
6.6789089e-07
4.992239e-07
6.3659788e-07
5.2217467e-07
6.5103655e-07
6.2997532e-07
6.8071646e-07
7.4130193e-07
7.3312324e-07
6.9972533e-07
7.2312062e-07
8.7925095e-07
9.1946069e-07
9.2860652e-07
8.987724e-07
7.0686098e-07
8.0367504e-07
7.590289e-07
7.8724964e-07
8.2979053e-07
8.1373287e-07
8.5660246e-07
9.0906298e-07
7.828976e-07
8.367807e-07
6.0565886e-07
7.2285966e-07
7.2381476e-07
7.347724e-07
9.1721816e-07
8.6527689e-07
6.1943417e-07
7.7673261e-07
8.2776047e-07
8.6532686e-07
4.0472931e-08
7.0495009e-07
7.5584725e-07
8.695406e-07
5.3148175e-07
3.9406254e-07
3.9013436e-07
5.1091846e-07
5.1656764e-07
3.7610599e-07
3.849743e-07
6.9356081e-07
7.2601473e-07
7.1397089e-07
9.2836151e-07
9.3779562e-07
7.7750535e-07
7.7893466e-07
8.0180928e-07
8.9576697e-07
8.7138871e-07
7.084345e-07
8.7609527e-07
9.0163627e-07
7.6072497e-07
9.8483026e-07
0.00026867681
0.00028797969
0.00017258839
0.00027894874
3.7531556e-06
3.445041e-06
3.3405389e-06
2.7733045e-05
3.9563388e-06
6.7636817e-07
8.9417257e-07
3.9477732e-06
9.0114404e-07
3.6532099e-06
3.5380223e-06
9.4063065e-07
7.8080502e-07
4.1692815e-06
9.4482191e-07
6.9397904e-07
6.7122088e-07
6.7390039e-07
6.8513549e-07
6.9779934e-07
6.8856657e-07
2.8848433e-05
7.020936e-07
1.767046e-05
1.7794968e-05
1.8404743e-05
1.8320498e-05
1.7539539e-05
1.7401376e-05
1.3883248e-05
1.6093324e-05
6.8231969e-07
3.627339e-06
6.9941479e-07
6.8950282e-07
6.7508916e-07
3.5896014e-06
6.8600817e-07
9.0636e-06
1.4342947e-05
2.821913e-05
1.8480827e-05
1.8548992e-05
7.1421277e-07
7.7787629e-07
8.3389319e-07
9.0706155e-07
9.2010407e-07
9.1200277e-07
9.299107e-07
9.2577517e-07
9.4984669e-07
9.3533198e-07
9.6265661e-07
7.901878e-07
9.9118489e-07
9.5676615e-07
9.5585594e-07
9.8064934e-07
7.5931962e-07
8.5532722e-07
9.4895866e-07
1.9364431e-05
1.9499708e-05
1.8025089e-05
1.7913553e-05
1.9750769e-05
1.9628694e-05
1.8130757e-05
1.822896e-05
2.0170853e-05
2.0075168e-05
1.9866097e-05
1.9973759e-05
1.9221892e-05
1.9071568e-05
1.7096152e-05
1.7255133e-05
1.8711477e-05
1.8906574e-05
1.6912851e-05
1.6666677e-05
1.583478e-05
1.7429639e-05
1.8452856e-05
1.8082808e-05
3.9670152e-05
2.4707489e-05
1.8517807e-05
1.7744727e-05
2.1255358e-05
2.2225467e-05
1.8628941e-05
1.8605367e-05
2.0265485e-05
2.0371153e-05
2.0770385e-05
2.051886e-05
8.1959313e-07
3.8430991e-06
8.4530664e-07
8.3210552e-07
3.8015104e-06
8.1220639e-07
8.2736476e-07
7.9794157e-07
8.6290375e-07
9.4723259e-07
8.1382552e-07
8.8685988e-07
9.4406979e-07
9.0778727e-07
9.5136155e-07
9.3603946e-07
9.9234684e-07
9.1997297e-07
8.2213739e-07
9.4871268e-07
9.9672875e-07
7.1315428e-07
8.3473576e-07
5.3874781e-07
6.6959343e-07
5.4219857e-07
6.77585e-07
6.8147501e-07
5.5160141e-07
5.6117525e-07
6.9466752e-07
5.5431992e-07
6.9173673e-07
5.631977e-07
7.0782093e-07
7.1448119e-07
8.4800152e-07
9.5349572e-07
9.0311852e-07
9.1411054e-07
9.711202e-07
9.6075996e-07
9.1798192e-07
9.8044812e-07
9.2411753e-07
9.3107889e-07
9.7700232e-07
1.0013746e-06
9.4504892e-07
9.8627903e-07
9.4036267e-07
9.6424739e-07
1.0191029e-06
8.2560979e-07
9.5576227e-07
9.5247827e-07
1.0110655e-06
1.0057306e-06
9.6335516e-07
1.0217611e-06
9.7175651e-07
7.3446583e-07
9.1625512e-07
8.6975045e-07
8.8203591e-07
9.5615204e-07
9.1316909e-07
7.0459506e-07
6.0106145e-07
6.9557843e-07
6.0915884e-07
6.9278269e-07
6.098155e-07
6.782206e-07
5.8765742e-07
6.8235317e-07
6.0678409e-07
7.4548192e-07
6.2923374e-07
6.5238268e-07
7.887886e-07
7.7520725e-07
8.0041259e-07
1.0319606e-06
9.9829892e-07
8.4428553e-07
6.8310964e-07
8.4038888e-07
6.9584127e-07
8.3658386e-07
6.9569502e-07
8.1674095e-07
6.6898477e-07
8.2237401e-07
6.9192032e-07
6.6799131e-07
8.5101614e-07
8.9960894e-07
7.1822439e-07
9.0773108e-07
9.3442994e-07
8.28218e-06
1.4759387e-05
2.7806388e-05
2.7919806e-05
9.364456e-07
9.5831658e-07
9.8763097e-07
9.7823461e-07
1.0009774e-06
8.5801523e-07
5.352001e-07
3.9744466e-07
4.00461e-07
5.4551585e-07
4.0564921e-07
4.0317316e-07
5.4865695e-07
4.0792975e-07
4.1005281e-07
5.5908698e-07
4.1561957e-07
4.1708875e-07
5.5680768e-07
4.1391869e-07
4.1205525e-07
5.6532906e-07
4.1913562e-07
4.1826944e-07
5.6789293e-07
4.1980498e-07
9.4590152e-07
9.648945e-07
9.676908e-07
9.7424832e-07
9.8249389e-07
9.967275e-07
9.9169313e-07
1.0226807e-06
9.9471345e-07
1.0054532e-06
1.0100663e-06
1.0150201e-06
8.8450973e-07
8.9415311e-07
9.22201e-07
7.0231033e-07
6.1439148e-07
6.1163738e-07
5.9896044e-07
6.0220787e-07
7.4344301e-07
7.6082795e-07
9.3866227e-07
1.038616e-06
7.9363028e-07
7.0155148e-07
6.9813609e-07
6.8226429e-07
6.8632843e-07
8.1985565e-07
8.4438951e-07
1.0611819e-06
0.00038646668
0.00072464016
0.00027800244
0.00047307317
9.4111571e-05
2.1700024e-06
3.5286911e-06
2.8589059e-06
3.4616973e-06
1.6374117e-06
2.0268522e-06
1.6914773e-06
1.1928564e-05
2.0761746e-06
1.2957071e-05
1.0080254e-05
3.363376e-06
1.2532001e-05
2.7631936e-06
3.302251e-06
2.1430985e-06
3.2151345e-06
3.2734563e-06
1.5881035e-06
1.4081625e-06
1.9474121e-06
1.8766626e-06
1.5441406e-06
1.6567877e-06
1.7380679e-06
1.6765136e-06
1.762237e-06
1.5881116e-06
2.0863606e-06
1.7494716e-06
1.3261459e-05
2.0507888e-06
2.0812861e-06
2.2730255e-06
1.8310841e-06
2.1227172e-06
2.0796551e-06
1.6703318e-05
3.3320619e-06
2.4828552e-06
2.7506773e-06
3.2910703e-06
1.5338823e-05
2.8527423e-06
2.3835728e-06
3.1992327e-06
1.5324453e-06
2.0240066e-06
1.8110611e-06
2.0126313e-06
1.3457442e-05
2.235912e-06
1.0970988e-06
1.5999197e-06
1.1807495e-06
1.631294e-06
1.2960317e-06
1.7145188e-06
1.2745055e-06
1.6940918e-06
1.3515557e-06
1.7855738e-06
3.5933705e-06
3.0705085e-06
3.3946345e-06
2.0189031e-06
2.2966315e-06
1.0835669e-05
3.1070358e-06
2.7282102e-06
2.2169434e-06
2.3738289e-06
3.1525115e-06
3.3317299e-06
2.0253216e-06
1.9383465e-06
2.0300015e-06
2.1574441e-06
1.959995e-06
2.0159123e-06
2.0979774e-06
2.7090004e-06
2.1070842e-06
1.9657441e-06
2.6019537e-06
2.7601867e-06
2.4770366e-06
2.5784989e-06
2.2966337e-06
2.6466385e-06
2.6753978e-06
2.7676539e-06
3.4220486e-06
2.9193622e-06
3.2459718e-06
2.8686856e-06
2.3563908e-06
2.2249758e-06
3.2687713e-06
3.8695831e-06
2.9255163e-06
2.8432982e-06
3.2344181e-06
3.1224588e-06
1.0471949e-06
2.2671567e-06
2.3480916e-06
1.1460901e-06
1.6738033e-05
1.4254438e-07
9.1793568e-07
1.2215145e-06
1.3157877e-06
1.2503794e-06
1.3342112e-06
2.2357897e-06
3.0693639e-06
2.4609366e-06
1.8814071e-06
1.8965904e-06
2.1751405e-06
2.2680232e-06
2.0005755e-06
2.9065903e-06
2.5814913e-06
2.5512029e-06
2.6782127e-06
2.9817912e-06
2.773486e-06
2.2936503e-06
3.23143e-06
3.0012146e-06
2.7829932e-06
1.735885e-06
1.7917138e-06
0.0050211522
0.00036619675
0.0002872877
0.0061146685
0.0028482274
0.0024209707
0.00030480239
0.00031093645
0.00070801416
0.0010693302
0.00025849052
0.00054219668
0.00024475759
0.00021178048
0.00047573606
0.0007210864
0.0010032089
0.00040230244
0.00084136816
0.00045401531
1.9422458e-06
2.0242282e-06
2.6648906e-06
2.5594675e-06
2.2068636e-06
2.1119784e-06
2.3119935e-06
2.4324277e-06
3.9236532e-06
1.3903127e-05
3.9666457e-06
3.2231759e-06
2.4811715e-06
1.3396785e-05
3.7293207e-06
1.0852885e-05
2.5801021e-06
3.7707382e-06
1.4249213e-05
3.4389497e-06
3.7722663e-06
3.7153518e-06
1.9017982e-06
1.8491507e-06
1.8291357e-06
4.1078858e-06
4.1668525e-06
4.3752484e-06
3.9909387e-06
3.9123931e-06
4.1121729e-06
1.9171942e-06
1.985555e-06
1.6836333e-06
2.0224858e-06
4.5312318e-06
5.1164082e-06
5.9091765e-06
5.3425359e-06
1.3530171e-05
2.1592061e-06
1.3853591e-05
2.2481279e-06
2.1834264e-06
1.8653953e-06
1.7932665e-06
4.3079963e-06
3.8644483e-06
2.8434822e-06
2.1048757e-06
2.6112816e-06
1.5678367e-05
2.2668021e-06
2.476127e-06
3.5868252e-06
1.8136946e-05
3.5342039e-06
1.7504872e-05
3.5729811e-06
2.9323373e-06
4.0732539e-06
4.1174103e-06
1.7568517e-05
2.0305497e-05
3.0793733e-06
4.3214187e-06
3.5343291e-06
4.7559502e-06
4.2576601e-06
4.6152494e-06
1.5525287e-06
1.709754e-06
4.1660065e-06
4.4014352e-06
4.5207122e-06
4.9338054e-06
4.7105962e-06
5.1335819e-06
4.9065337e-06
5.5825563e-06
5.3497912e-06
6.7226929e-06
5.8549307e-06
6.4798143e-06
5.8376625e-06
5.5970365e-06
6.1342486e-06
2.4411435e-06
1.5394684e-05
2.7485465e-06
1.4261345e-06
1.8854665e-06
1.4128797e-06
1.8679661e-06
1.3680334e-06
1.8079071e-06
1.4575864e-06
1.9337726e-06
1.4647662e-06
1.9556451e-06
1.4184804e-06
1.9854122e-06
1.4803993e-06
2.0497446e-06
3.8766711e-06
4.0083622e-06
3.9743772e-06
2.3922897e-06
2.9734897e-06
1.0630559e-05
1.0898443e-05
1.1707027e-05
2.6879399e-06
3.0927168e-06
3.4579755e-06
4.1444377e-06
3.8261089e-06
3.6556846e-06
4.0543161e-06
4.1915188e-06
2.1337361e-06
2.0503564e-06
2.22774e-06
2.1290435e-06
2.2063034e-06
2.0730379e-06
4.1805615e-06
4.0976736e-06
2.3012989e-06
2.5565378e-06
2.6681989e-06
3.3442009e-06
2.2898874e-06
2.1457672e-06
2.3506947e-06
2.5738879e-06
3.2240885e-06
3.2530221e-06
2.804454e-06
3.5173837e-06
3.3933754e-06
3.667763e-06
3.2578909e-06
3.69468e-06
3.6842942e-06
3.2307714e-06
3.8175695e-06
3.2639321e-06
3.0531168e-06
2.7681723e-06
3.6369136e-06
3.1195995e-06
3.4792039e-06
3.0763384e-06
3.920175e-06
3.8865729e-06
4.3851129e-06
4.9997187e-06
3.7957783e-06
3.7784783e-06
1.2427802e-06
2.764794e-06
2.8764655e-06
1.3743211e-06
1.7994733e-05
8.7932368e-06
6.1793872e-06
1.4382048e-06
1.3987214e-06
1.38375e-06
1.448768e-06
1.4714764e-06
1.7228567e-06
1.679873e-06
1.479693e-06
2.8773041e-06
1.1436709e-05
1.1738644e-05
3.226893e-06
4.1520545e-06
2.0250841e-06
2.1167137e-06
2.0961368e-06
2.7830811e-06
2.9059901e-06
2.1322547e-06
2.2000874e-06
3.3780482e-06
3.3674556e-06
3.5257892e-06
3.9184036e-06
3.2033223e-06
3.2501586e-06
2.9565656e-06
3.1638158e-06
3.028221e-06
3.3552539e-06
4.3525415e-06
4.031254e-06
2.0643477e-06
2.1385958e-06
0.00078478139
0.00092626782
0.00056982618
0.006308724
0.0023285639
0.0035428064
0.00065238709
0.00078585805
0.00077327202
0.0036051308
0.0022943603
0.001917385
0.0019116999
0.00057031014
0.00049590666
0.00066592334
0.00029292593
0.00025964517
0.00022781363
0.0056160955
5.177671e-05
4.8510711e-05
6.1875009e-05
5.5258259e-05
5.1292076e-05
4.7656198e-05
0.00029831737
2.9672816e-05
7.4985079e-05
5.3957243e-05
0.00034879333
7.2529113e-05
6.9565849e-05
4.1962507e-05
5.2194807e-05
4.1617653e-05
3.9964119e-05
5.6114677e-05
8.7952766e-05
0.00012702891
0.000141794
0.00043190805
0.00013497515
8.3565363e-05
0.00011324192
0.00012140128
0.00012713603
9.8643721e-05
0.00011485412
0.00011376257
0.00014222599
0.000128618
0.0001585739
0.00025032009
0.00024387713
0.00021254122
0.00045775465
0.00040234086
0.00036598014
0.00028829098
0.00040193452
0.00032664573
0.00015190548
0.00012425059
0.00015318326
0.0001081708
0.00012707826
0.00010246754
7.3043387e-05
4.3868701e-05
5.2832421e-05
4.8718133e-05
5.3509367e-05
5.063447e-05
5.2018057e-05
4.5818074e-05
4.9779845e-05
4.4124096e-05
3.3016992e-05
3.8851688e-05
7.7514691e-05
8.0197783e-05
8.339421e-05
7.7433531e-05
6.2087612e-05
9.1897996e-05
6.4780125e-05
0.00011036434
9.6587599e-05
4.6249772e-05
4.5135297e-05
4.7805121e-05
4.3913136e-05
4.5214761e-05
4.7477448e-05
3.9650544e-05
4.2654188e-05
4.044999e-05
3.7566899e-05
4.3072216e-05
4.1023176e-05
8.0275042e-05
9.2180312e-05
8.7217677e-05
5.6659503e-05
5.6409092e-05
5.9385629e-05
7.0018552e-05
7.7269729e-05
7.4384515e-05
5.9375481e-05
6.5423512e-05
6.2397284e-05
6.7431851e-05
6.8442733e-05
7.1434752e-05
6.1542919e-05
6.7922043e-05
5.7957542e-05
5.0427817e-05
6.283296e-05
5.3963738e-05
5.8055105e-05
6.5802334e-05
5.5294252e-05
6.1432207e-05
4.9094685e-05
5.2001097e-05
4.7458939e-05
4.6793271e-05
4.428029e-05
9.3706716e-05
0.00010649473
9.7282925e-05
6.5100506e-05
8.2303056e-05
6.873732e-05
8.6885399e-05
7.6186958e-05
7.2440405e-05
9.0944167e-05
0.00010621588
8.7379154e-05
7.9940992e-05
0.00010159545
8.3686382e-05
0.0015192142
0.0020005325
0.0018368607
0.079470364
0.0037580514
0.026109838
0.0073111188
0.0073629294
0.0010177662
0.0030019328
0.003409961
0.00068896194
0.0011501527
0.0020001513
0.0027903693
0.0023239352
0.0011863937
0.0036508037
0.001912937
0.00077806588
0.00065240311
0.00038409109
0.00051649703
0.00062024068
0.0012582052
0.00058994185
0.00055805092
0.00061383583
0.00032378612
0.00029135638
0.00030758351
0.00029910656
0.00032097441
0.00032294724
0.00037488129
0.00020878905
0.26153375
0.068489274
0.056223425
0.00011867127
0.00010291312
8.9757148e-05
6.9517182e-05
7.8731806e-05
0.00060690113
0.00039082729
0.00083320558
0.00072911239
0.0021761682
0.00067824753
0.0027440939
0.00054237657
0.0023055385
0.0011085324
0.00051187402
0.00013815168
0.00019060963
0.00027892501
0.00021099673
0.0001236544
8.827363e-05
7.1985281e-05
5.3230271e-05
7.8151786e-05
0.00042791184
0.00030333631
0.00039151455
0.00023187324
0.00036733865
0.00028582843
0.00033638254
0.00020354825
0.0019272212
0.00097922808
0.00053343287
0.00025326672
0.00019669085
0.00013352077
0.00045941763
0.00017930814
0.00012052673
0.00026997826
8.6652843e-05
0.00059603546
0.00027099774
0.00021949848
0.00034380606
0.00013772563
0.00025367892
0.00029799764
0.00019506567
0.00015978841
0.00015413526
0.00018013259
0.00017162904
0.00022760361
0.00020272963
0.00034702726
0.00025537426
0.00031470305
0.00025468564
0.00023264731
0.00028380974
0.00014161187
0.00011053518
0.00012547668
9.8736311e-05
9.8775559e-05
0.00011123859
0.00038049511
0.00032945007
0.00041512503
0.00049332778
0.00035844856
0.00045172708
0.000187896
0.00016100231
0.00026082422
0.0002666907
0.00029999985
0.00041275901
0.00031104611
0.00034921296
0.00022847799
0.00017963697
0.00020126577
0.00015918274
0.00017817355
0.0018635245
0.0014545609
0.00018271698
0.00027754523
0.0003453985
0.00031826496
0.00035123349
0.0015885724
0.0007845081
0.0012631576
0.00023394697
0.00023540495
0.00021971639
0.0002149793
0.00018776265
0.00020408604
0.00014765478
0.00013167979
0.00014497247
0.00016292445
0.00017311226
0.00015811404
0.00010849421
0.00012021944
0.00010805738
9.6752427e-05
7.9580661e-05
9.7007028e-05
0.00029157056
0.00024849935
0.00024312373
0.00025073157
0.00021791697
0.00022594756
0.00031712837
0.00029291913
0.00029639473
0.00021471922
0.00030511716
0.00031106184
0.00025070051
0.00017257276
0.00019622078
0.00017348061
4.9395598e-05
0.00032737172
5.0847076e-05
7.9087096e-05
0.0001378405
0.00016606501
0.00015807572
0.00014445551
0.00011554995
9.6716443e-05
0.00010950909
0.0001016918
0.0001311105
0.00014129087
0.00014994732
0.00012384666
0.00012103413
0.00010967151
0.00012619522
0.00010602281
0.00015913057
0.00017466743
0.00018307731
0.00015168347
0.00014243195
0.00012803307
5.7590294e-05
6.463499e-05
0.00018558277
8.485721e-05
0.00010875808
0.00016073717
0.00019519119
8.8063021e-05
7.1138647e-05
0.00018316221
0.00017392754
7.9408079e-05
0.00013746638
0.0001126534
0.00013158765
0.00011410571
9.9109723e-05
0.00010169459
0.00011184564
9.0566396e-05
9.5907352e-05
9.1205789e-05
0.0001029146
8.5311577e-05
0.0001076623
0.00013198235
0.00011598353
0.00012206287
8.8672334e-05
7.3033435e-05
8.1410245e-05
7.9199816e-05
7.4274709e-05
9.1858804e-05
8.2526674e-05
8.2233825e-05
6.7431739e-05
6.6947417e-05
7.4282803e-05
6.1061428e-05
0.00088254497
0.00097790844
0.0016554699
0.0014291118
0.0015000955
0.0015774975
0.001692542
0.00054725718
0.0015998182
0.00048677344
0.00086512267
0.0025958828
0.0014960556
0.0013835104
0.0013424117
0.0014878462
0.0012451422
0.001260887
0.0010114223
0.0011231917
0.001134075
5.4184232e-05
5.1008865e-05
5.6418418e-05
0.00020109994
0.00021041983
0.00024209231
0.00023160688
0.00033527794
0.00029180665
0.00027686183
0.00031880212
0.00027888145
0.00030800851
0.00026693115
0.00032153599
0.00022215468
0.00020963839
0.0002542796
0.0002406859
5.2451342e-05
6.1655011e-05
5.8887911e-05
0.0013188963
0.0013822594
0.0012520065
0.0011949367
0.0010518961
0.00116112
0.0011175827
0.0010103562
0.0011322178
0.00097686246
0.0010803982
0.0010228693
0.0014142358
0.0012778604
0.0013646531
0.0012343236
0.00038534551
0.00044264849
0.00042262249
0.00036717795
0.00058083386
0.00050770895
0.00048562516
0.00055642679
0.00042722874
0.00035558227
0.00037077295
0.00040996491
0.00049138519
0.00054065295
0.00047155467
0.00056345151
0.00094689426
0.00084612315
0.00081225854
0.00090902457
0.00066199632
0.00075073553
0.00072051806
0.00063491336
0.00082276159
0.00088056586
0.00092039847
0.00078820873
0.00073001445
0.00061700489
0.00064322015
0.00069989751
0.00021736771
0.0003252264
0.00027111233
0.00020921467
0.00033309177
0.00028507311
0.00033073467
0.00027869114
0.00027039302
0.00099087095
6.0184927e-05
6.822711e-05
6.2767593e-05
8.1880388e-05
6.9795136e-05
6.6314146e-05
0.00019301288
0.00018442263
0.0002370163
0.00022338019
0.0002402417
0.00029779592
0.0002568936
0.00030577394
0.00016487426
0.0001743236
0.00019748928
0.0002068135
0.00011800204
0.00013049127
0.00016394979
0.00014686874
0.0001551778
0.00014308792
0.00018011368
0.00019556255
0.00083641906
0.00070994801
0.0008247696
0.0012482356
0.0011610724
0.0011601769
0.001135821
0.00093430994
0.0009341629
0.0010260236
0.00093572803
0.00094703991
0.0010550573
0.00093389637
0.00092203717
0.0002567471
0.00026183869
0.00085219341
0.00086286581
0.00076490373
0.00077788203
0.00060044519
0.00068032319
0.00069650411
0.00061361865
0.00034685816
0.00035507092
0.00040012224
0.00041325213
0.00052675702
0.00045989597
0.00047170135
0.00054203979
0.00048251525
0.00042068146
0.0004598004
0.0001776749
0.0024713397
0.000535497
0.00024029831
0.00017230167
0.00022847966
0.00028842764
0.00011424167
0.00016385242
6.7615621e-05
9.784584e-05
0.00013220794
0.031041534
0.028262582
0.00035458838
0.00026381812
0.0005062161
0.00025424919
0.00058702513
0.00074651014
0.00029631194
0.0007799867
0.00015694056
0.00031659264
0.00046945888
2.8963468e-05
0.00022407261
3.1359157e-05
0.00044055604
0.00024740255
4.9984006e-05
5.2755399e-05
0.00059043417
5.255157e-05
0.00013586039
6.3370909e-05
7.4874922e-05
0.00012339434
0.00021909858
0.00014452304
0.00024556314
0.0003172444
0.00044376711
0.00070004751
3.1337779e-05
3.0386753e-05
2.3977267e-05
2.5084177e-05
2.2875496e-05
2.1784631e-05
0.00046631426
3.2241269e-05
3.309678e-05
6.02118e-05
0.0015861082
0.00050924741
0.00018636534
0.0001272493
0.0010993835
6.9378824e-05
0.00040256608
0.00011006786
0.00020980926
0.00016235084
0.00028377815
0.00018087232
3.9101297e-05
3.9141458e-05
4.2859002e-05
5.5746682e-05
4.1863599e-05
7.4576485e-05
6.0393683e-05
6.1477976e-05
8.2194496e-05
9.6824852e-05
5.9425239e-05
7.9291126e-05
9.2759693e-05
9.2002768e-05
0.00015657414
0.00010787844
2.8350127e-05
2.938895e-05
2.727979e-05
2.6188036e-05
1.9616949e-05
2.0703736e-05
3.4415877e-05
3.3872334e-05
0.00036956277
0.00042178705
3.8763017e-05
0.00039542815
7.5738302e-05
6.0504615e-05
0.00032434474
4.2078815e-05
5.5571304e-05
0.00014074913
8.2074197e-05
0.00010414156
0.00018626522
2.6690996e-05