/*--------------------------------*- C++ -*----------------------------------*\
  =========                 |
  \\      /  F ield         | OpenFOAM: The Open Source CFD Toolbox
   \\    /   O peration     | Website:  https://openfoam.org
    \\  /    A nd           | Version:  8
     \\/     M anipulation  |
\*---------------------------------------------------------------------------*/
/*   Windows 32 and 64 bit porting by blueCAPE: http://www.bluecape.com.pt   *\
|  Based on Windows porting (2.0.x v4) by Symscape: http://www.symscape.com   |
\*---------------------------------------------------------------------------*/
FoamFile
{
    version     2.0;
    format      ascii;
    class       labelListList;
    location    "constant/vegetation";
    object      globalFaceFaces;
}
// * * * * * * * * * * * * * * * * * * * * * * * * * * * * * * * * * * * * * //


398
(

582
(
441
443
444
445
446
447
448
449
450
453
454
458
461
472
2627
2628
2629
2630
2631
2632
2633
2634
2635
2636
2637
2638
2639
2640
2641
2643
2644
2645
2653
2654
3046
3389
3392
3393
3401
3465
3470
3471
3472
3476
3477
3478
3479
3480
3482
3483
3488
3491
3492
3493
3801
4090
4091
4092
4093
4094
4095
4096
4097
4098
4099
4100
4101
4102
4103
4104
4105
4106
4107
4108
4109
4110
4111
4112
4113
4114
4115
4116
4117
4118
4119
4120
4121
4122
4123
4124
4125
4133
4134
4135
4137
4139
4140
4159
4160
4170
4215
4216
4222
4223
4224
4263
4264
4265
4266
4267
4268
4269
4270
4271
4272
4273
4274
4275
4276
4277
4278
4279
4280
4281
4282
4283
4284
4287
4289
4290
4291
4294
4295
4297
4298
4299
4300
4301
4302
4303
4304
4305
4306
4307
4308
4309
4310
4311
4312
4313
4314
4315
4316
4317
4318
4319
4320
4321
4322
4323
4324
4325
4326
4327
4328
4329
4330
4331
4333
4336
4337
4338
4339
4340
4341
4342
4343
4344
4345
4349
4350
4351
4352
4353
4354
4355
4356
4357
4358
4359
4360
4361
4362
4363
4364
4368
4369
4370
4371
4372
4373
4374
4375
4376
4377
4378
4379
4380
4381
4382
4383
4384
4385
4386
4387
4388
4389
4390
4391
4392
4393
4394
4395
4396
4397
4398
4399
4400
4401
4402
4403
4404
4405
4406
4407
4408
4409
4410
4411
4412
4413
4414
4415
4425
4432
4433
4434
4435
4436
4437
4438
4439
4440
4441
4442
4443
4444
4445
4446
4447
4448
4449
4450
4451
4452
4453
4454
4455
4456
4457
4458
4459
4460
4461
4462
4463
4464
4465
4466
4469
4470
4471
4472
4473
4474
4475
4476
4477
4478
4479
4480
4481
4482
4483
4484
4487
4488
4489
4490
4491
4492
4493
4494
4495
4496
4497
4498
4499
4500
4501
4502
4504
4505
4506
4509
4513
4514
4532
4533
4534
4535
4536
4537
4538
4539
4540
4541
4542
4544
4548
4572
4573
4574
4575
4576
4577
4578
4579
4580
4581
4605
4606
4621
4622
4623
4624
4625
4692
4693
4694
4695
4696
4697
4698
4699
4700
4701
4702
4703
4704
4705
4706
4707
4708
4709
4710
4711
4712
4713
4714
4715
4716
4717
4718
4719
4720
4721
4722
4723
4724
4725
4726
4727
4728
4729
4730
4731
4732
4733
4734
4735
4736
4737
4738
4739
4740
4741
4742
4743
4744
4745
4746
4747
4748
4749
4750
4751
4752
4753
4754
4755
4756
4757
4758
4759
4760
4761
4762
4764
4765
4766
4767
4768
4769
4770
4771
4772
4773
4774
4775
4776
4777
4778
4779
4780
4781
4782
4783
4784
4785
4786
4787
4788
4789
4790
4791
4792
4793
4794
4795
4796
4797
4798
4799
4800
4801
4802
4803
4804
4805
4806
4807
4808
4809
4810
4811
4812
4813
4814
4815
4816
4817
4818
4819
4820
4821
4822
4823
4824
4825
4826
4827
4834
4835
4857
4858
4859
4860
4861
4862
4863
4864
4865
4866
4867
4868
4869
4870
4871
4872
4873
4874
4875
4876
4877
4878
4879
4880
4881
4882
4883
4884
4885
4886
4887
4888
4889
4890
4891
4892
4893
4894
4895
4896
4897
4898
4899
4900
4901
4902
4903
4904
4921
4922
4923
4924
4925
4926
4927
4928
4929
4930
4931
4932
4933
4934
4935
4936
4956
4958
4962
4979
4981
4982
5348
5349
5350
5351
5352
5353
5355
5356
5357
5363
5364
5365
5370
5371
5372
5373
5374
5375
5389
5390
5392
5397
5419
5433
5465
5467
5470
5475
)


2133
(
37
38
441
442
443
444
445
446
447
448
449
450
453
454
458
461
472
473
474
475
476
477
478
479
480
481
482
483
488
490
491
492
494
505
512
513
514
515
516
517
518
519
520
521
522
523
525
533
534
535
536
537
538
539
540
541
542
543
544
545
552
553
554
564
565
566
567
568
569
570
571
572
573
574
575
576
577
578
579
580
581
582
583
584
585
586
587
588
589
593
595
600
601
602
603
604
605
606
607
623
624
625
626
627
628
629
630
631
632
633
634
635
636
637
638
639
640
641
642
643
644
645
664
666
667
682
683
684
689
738
739
740
745
753
754
755
756
757
758
759
760
761
762
769
770
771
787
788
789
796
1172
1173
1174
1175
1176
1184
1185
1186
1187
1189
1190
1191
1192
1193
1194
1195
1196
1197
1203
1205
1207
1208
1209
1210
1211
1212
1213
1214
1215
1216
1217
1218
1219
1220
1229
1233
1239
1241
1242
1244
1254
1255
1256
1257
1263
1264
1265
1266
1271
1272
1273
1274
1275
1276
1290
1291
1292
1293
1294
1295
1296
1297
1298
1299
1300
1301
1302
1303
1304
1305
1306
1307
1308
1309
1316
1317
1318
1319
1320
1321
1322
1323
1324
1325
1413
1433
1444
1445
1454
1455
1456
1457
1458
1459
1460
1487
1488
1489
1490
1491
1492
1493
1494
1495
1496
1518
1519
1520
1527
1528
1541
1542
1543
1544
1550
1551
1552
1554
1555
1556
1561
1562
1563
1564
1565
1566
1567
1568
1569
1570
1581
1582
1583
1584
1585
1586
1590
1593
1594
1601
1602
1603
1604
1611
1612
1613
1614
1615
1616
1617
1618
1619
1620
1621
1625
1628
1629
1630
1631
1632
1637
1638
1639
1640
1641
1642
1643
1644
1645
1646
1647
1648
1649
1650
1651
1652
1653
1655
1656
1657
1659
1660
1661
1662
1663
1665
1666
1668
1669
1671
1672
1673
1675
1676
1677
1678
1679
1681
1682
1684
1685
1687
1688
1689
1691
1692
1693
1694
1695
1697
1698
1700
1701
1702
1703
1704
1705
1706
1707
1708
1709
1710
1712
1713
1714
1715
1716
1717
1718
1719
1720
1721
1722
1723
1724
1726
1727
1728
1729
1730
1731
1732
1733
1734
1735
1736
1737
1738
1770
1778
1779
1780
1781
1782
1783
1784
1785
1786
1787
1788
1789
1790
1791
1792
1793
1794
1795
1796
1797
1798
1799
1800
1801
1802
1803
1804
1805
1806
1807
1808
1809
1810
1811
1812
1813
1814
1815
1816
1817
1818
1819
1820
1821
1822
1823
1824
1825
1826
1827
1828
1829
1830
1831
1832
1833
1834
1835
1836
1837
1838
1839
1840
1841
1844
1845
1849
1858
1871
1872
1873
1874
1875
1876
1877
1878
1879
1880
1881
1882
1883
1884
1885
1886
1887
1888
1889
1890
1891
1892
1893
1894
1895
1896
1897
1901
1902
1903
1904
1905
1906
1907
1908
1912
1913
1914
1915
1916
1917
1928
1929
1930
1931
1932
1933
1934
1935
1936
1937
1938
1939
1940
1941
1942
1943
1944
1970
1971
1972
1973
1974
1975
1976
1977
1978
1979
1981
1982
1983
1984
1985
1989
1990
1991
1992
1993
1994
1995
1996
1997
1998
1999
2000
2001
2002
2003
2004
2005
2007
2010
2012
2013
2014
2015
2016
2017
2018
2019
2020
2021
2022
2023
2024
2025
2026
2027
2028
2031
2035
2039
2041
2042
2043
2044
2045
2046
2047
2048
2049
2050
2051
2052
2053
2057
2058
2059
2060
2061
2069
2070
2071
2072
2073
2076
2077
2091
2092
2093
2094
2095
2096
2097
2098
2099
2100
2101
2102
2103
2104
2105
2106
2107
2108
2114
2115
2116
2117
2123
2124
2125
2126
2127
2128
2129
2130
2131
2132
2133
2134
2203
2236
2238
2239
2240
2241
2242
2256
2265
2266
2299
2300
2301
2302
2303
2304
2305
2306
2307
2327
2328
2339
2340
2341
2342
2355
2356
2366
2393
2394
2627
2628
2629
2630
2631
2632
2633
2634
2638
2640
2643
2652
2653
2654
2655
2656
2657
2658
2659
2660
2661
2662
2663
2664
2665
2672
2673
2676
2677
2679
2680
2687
2688
2689
2690
2691
2692
2708
2709
2710
2711
2712
2716
2717
2719
2720
2722
2723
2724
2725
2726
2727
2728
2729
2730
2731
2738
2739
2740
2741
2742
2743
2744
2745
2747
2748
2749
2750
2751
2752
2753
2760
2761
2762
2763
2764
2765
2766
2767
2768
2769
2770
2771
2772
2779
2780
2781
2782
2783
2784
2785
2786
2789
2790
2791
2792
2793
2794
2795
2796
2797
2798
2799
2800
2801
2802
2803
2804
2805
2806
2807
2808
2809
2810
2811
2812
2813
2814
2815
2816
2817
2821
2822
2823
2824
2825
2832
2833
2834
2835
2836
2837
2838
2842
2843
2844
2845
2858
2859
2860
2861
2862
2863
2864
2870
2873
2874
2875
2876
2877
2878
2879
2880
2893
2894
2895
2896
2897
2898
2899
2900
2901
2902
2903
2904
2905
2906
2907
2908
2909
2910
2911
2912
2913
2914
2915
2916
2917
2918
2919
2920
2937
2941
2942
2956
2957
2958
2959
2960
2961
2962
2963
2983
2987
2988
2989
2993
3003
3004
3005
3006
3007
3008
3009
3025
3026
3027
3028
3035
3036
3037
3038
3039
3040
3041
3042
3043
3044
3389
3392
3401
3465
3469
3470
3471
3472
3476
3477
3478
3479
3480
3481
3482
3483
3488
3491
3492
3493
3494
3495
3496
3497
3505
3506
3507
3508
3509
3512
3513
3514
3528
3529
3530
3531
3532
3533
3534
3535
3536
3550
3551
3552
3553
3554
3585
3586
3587
3588
3589
3590
3591
3611
3612
3613
3614
3615
3616
3617
3618
3619
3625
3626
3627
3628
3629
3630
3640
3641
3642
3647
3648
3651
3655
3656
3657
3659
3661
3663
3664
3666
3668
3670
3671
3672
3673
3674
3675
3677
3679
3681
3685
3686
3687
3689
3691
3693
3697
3698
3699
3700
3702
3704
3706
3708
3711
3712
3714
3717
3719
3722
3723
3725
3728
3729
3733
3734
3735
3742
3743
3744
3751
3752
3753
3754
3755
3756
3760
3761
3762
3763
3764
3765
3769
3770
3771
3775
3776
3777
3781
3782
3783
3787
3788
3789
3794
3797
3801
4090
4091
4092
4093
4094
4095
4096
4097
4098
4099
4100
4101
4102
4103
4104
4105
4106
4107
4108
4109
4110
4111
4112
4113
4114
4115
4116
4117
4118
4119
4120
4121
4122
4123
4124
4125
4126
4127
4128
4129
4130
4131
4132
4133
4134
4135
4136
4137
4138
4139
4140
4141
4142
4143
4144
4145
4146
4147
4148
4149
4150
4151
4152
4153
4154
4155
4156
4157
4158
4159
4160
4161
4162
4163
4164
4165
4166
4167
4168
4169
4170
4171
4172
4173
4174
4175
4176
4177
4178
4179
4180
4181
4182
4183
4184
4185
4186
4187
4188
4189
4190
4191
4192
4193
4194
4195
4196
4197
4198
4199
4200
4201
4202
4203
4204
4205
4206
4207
4208
4209
4210
4211
4212
4213
4214
4215
4216
4217
4218
4219
4220
4221
4222
4223
4224
4225
4226
4227
4228
4229
4230
4231
4232
4233
4234
4235
4236
4237
4238
4239
4240
4241
4242
4243
4244
4245
4246
4247
4248
4249
4250
4251
4252
4253
4254
4255
4256
4257
4258
4259
4260
4261
4262
4263
4264
4265
4266
4267
4268
4269
4270
4271
4272
4273
4274
4275
4276
4277
4278
4279
4280
4281
4282
4283
4284
4285
4286
4287
4288
4289
4290
4291
4292
4293
4294
4295
4296
4297
4298
4299
4300
4301
4302
4303
4304
4305
4306
4307
4308
4309
4310
4311
4312
4313
4314
4315
4316
4317
4318
4319
4320
4321
4322
4323
4324
4325
4326
4327
4328
4329
4330
4331
4332
4333
4334
4335
4336
4337
4338
4339
4340
4341
4342
4343
4344
4345
4346
4347
4348
4349
4350
4351
4352
4353
4354
4355
4356
4357
4358
4359
4360
4361
4362
4363
4364
4365
4366
4367
4368
4369
4370
4371
4372
4373
4374
4375
4376
4377
4378
4379
4380
4381
4382
4383
4384
4385
4386
4387
4388
4389
4390
4391
4392
4393
4394
4395
4396
4397
4398
4399
4400
4401
4402
4403
4404
4405
4406
4407
4408
4409
4410
4411
4412
4413
4414
4415
4416
4417
4418
4419
4420
4421
4422
4423
4424
4425
4426
4427
4428
4429
4430
4431
4432
4433
4434
4435
4436
4437
4438
4439
4440
4441
4442
4443
4444
4445
4446
4447
4448
4449
4450
4451
4452
4453
4454
4455
4456
4457
4458
4459
4460
4461
4462
4463
4464
4465
4466
4467
4468
4469
4470
4471
4472
4473
4474
4475
4476
4477
4478
4479
4480
4481
4482
4483
4484
4487
4488
4489
4490
4491
4492
4493
4494
4495
4496
4497
4498
4499
4500
4501
4502
4503
4504
4505
4506
4507
4508
4509
4510
4511
4512
4513
4514
4515
4516
4517
4518
4519
4520
4521
4522
4523
4524
4525
4526
4527
4528
4529
4530
4531
4532
4533
4534
4535
4536
4537
4538
4539
4540
4541
4542
4543
4544
4545
4546
4547
4548
4549
4550
4551
4552
4553
4554
4555
4556
4557
4558
4559
4560
4561
4562
4563
4564
4565
4566
4567
4568
4569
4570
4571
4572
4573
4574
4575
4576
4577
4578
4579
4580
4581
4582
4583
4584
4585
4586
4587
4588
4589
4590
4591
4592
4593
4594
4595
4596
4597
4598
4599
4600
4601
4602
4603
4604
4605
4606
4607
4608
4609
4610
4611
4612
4613
4614
4615
4616
4617
4618
4619
4620
4621
4622
4623
4624
4625
4626
4627
4628
4629
4630
4631
4632
4633
4634
4635
4636
4637
4638
4639
4640
4641
4642
4643
4644
4645
4646
4647
4648
4649
4650
4651
4652
4653
4654
4655
4656
4657
4658
4659
4660
4661
4662
4663
4664
4665
4666
4667
4668
4669
4670
4671
4672
4673
4674
4675
4676
4677
4678
4679
4680
4681
4682
4683
4684
4685
4686
4687
4688
4689
4690
4691
4692
4693
4694
4695
4696
4697
4698
4699
4700
4701
4702
4703
4704
4705
4706
4707
4708
4709
4710
4711
4712
4713
4714
4715
4716
4717
4718
4719
4720
4721
4722
4723
4724
4725
4726
4727
4728
4729
4730
4731
4732
4733
4734
4735
4736
4737
4738
4739
4740
4741
4742
4743
4744
4745
4746
4747
4748
4749
4750
4751
4752
4753
4754
4755
4756
4757
4758
4759
4760
4761
4762
4764
4765
4766
4767
4768
4769
4770
4771
4772
4773
4774
4775
4776
4777
4778
4779
4780
4781
4782
4783
4784
4785
4786
4787
4788
4789
4790
4791
4792
4793
4794
4795
4796
4797
4798
4799
4800
4801
4802
4803
4804
4805
4806
4807
4808
4809
4810
4811
4812
4813
4814
4815
4816
4817
4818
4819
4820
4821
4822
4823
4824
4825
4826
4827
4828
4829
4830
4831
4832
4833
4834
4835
4836
4837
4838
4839
4840
4841
4842
4843
4844
4845
4846
4847
4848
4849
4850
4851
4852
4853
4854
4855
4856
4857
4858
4859
4860
4861
4862
4863
4864
4865
4866
4867
4868
4869
4870
4871
4872
4873
4874
4875
4876
4877
4878
4879
4880
4881
4882
4883
4884
4885
4886
4887
4888
4889
4890
4891
4892
4893
4894
4895
4896
4897
4898
4899
4900
4901
4902
4903
4904
4905
4906
4907
4908
4909
4910
4911
4912
4913
4914
4915
4916
4917
4918
4919
4920
4921
4922
4923
4924
4925
4926
4927
4928
4929
4930
4931
4932
4933
4934
4935
4936
4937
4938
4939
4940
4941
4942
4943
4944
4945
4946
4947
4948
4949
4950
4951
4952
4953
4956
4958
4962
4979
4980
4981
4982
4983
4991
4992
4993
4994
4996
4997
4998
4999
5000
5001
5002
5003
5004
5010
5012
5014
5015
5016
5017
5018
5019
5020
5021
5022
5023
5024
5025
5026
5027
5038
5042
5046
5048
5049
5051
5060
5061
5062
5063
5067
5068
5069
5070
5075
5076
5077
5078
5079
5080
5094
5095
5096
5097
5098
5099
5100
5101
5102
5103
5104
5105
5106
5107
5108
5109
5110
5111
5112
5113
5120
5121
5122
5123
5124
5125
5126
5127
5128
5129
5216
5240
5251
5252
5261
5262
5263
5264
5265
5266
5267
5294
5295
5296
5297
5298
5299
5300
5301
5302
5303
5325
5326
5327
5334
5335
5348
5349
5350
5351
5352
5353
5355
5356
5357
5363
5364
5365
5370
5372
5373
5374
5375
5381
5390
5392
5397
5401
5417
5418
5419
5420
5421
5422
5433
5443
5444
5450
5451
5465
5467
5490
5491
5504
5505
5506
5522
5523
5524
5525
5526
5542
5566
5567
5576
5580
5630
5631
5632
5633
5634
5635
5636
5666
5667
5668
5669
5670
5673
5674
5750
5751
5752
5755
5756
5771
5773
5774
5775
5776
5777
5778
5786
5787
5826
5827
5828
5829
5832
5844
5845
5846
5866
5867
5868
5870
5904
5905
5906
5907
5908
5909
5910
5914
5915
5924
5927
5953
5956
5957
5963
5964
5965
5966
5967
5982
5983
5984
5985
5989
5998
6025
6026
6027
6028
6046
6047
6049
6053
6065
)


1523
(
37
38
441
442
443
444
445
446
447
448
449
450
451
452
453
454
455
456
457
458
459
460
461
462
463
464
465
466
467
468
469
470
471
472
473
474
484
485
486
487
488
489
490
491
492
493
494
495
496
497
498
499
500
501
502
503
504
505
506
507
508
509
510
511
512
513
514
515
516
517
518
519
520
524
525
526
527
528
529
530
531
532
533
534
535
536
537
538
539
540
541
546
547
548
549
550
551
552
553
554
555
556
557
558
559
560
561
562
563
564
565
566
567
568
569
570
571
572
573
574
575
576
577
578
579
580
581
584
585
586
587
588
589
590
591
592
594
595
596
597
598
599
605
606
607
608
609
610
611
612
613
614
615
616
617
618
619
620
621
622
623
624
625
626
627
628
629
630
631
632
633
634
635
636
637
638
639
640
646
647
648
649
650
651
652
653
654
655
656
657
658
664
666
667
670
671
672
673
674
675
676
677
678
679
680
681
682
683
684
685
686
687
688
689
690
691
692
693
710
711
712
713
714
715
716
717
718
719
720
721
738
739
740
741
742
743
744
745
746
747
748
749
750
751
752
763
764
765
766
767
768
772
773
774
775
776
777
778
779
780
781
782
783
784
785
786
787
788
789
790
791
792
793
794
795
796
797
798
799
800
801
805
813
814
816
827
841
846
848
851
863
868
870
871
891
909
916
961
987
989
1017
1030
1031
1032
1036
1037
1038
1054
1055
1056
1060
1061
1062
1063
1064
1065
1084
1085
1086
1090
1091
1092
1093
1094
1095
1173
1174
1175
1176
1541
1542
1543
1544
1554
1558
1586
1587
1589
1620
1621
1624
1625
1626
1627
1634
1685
1686
1687
1688
1689
1690
1691
1692
1693
1698
1765
1767
1768
1769
1773
1774
1849
1850
1851
1858
1859
1860
1861
1862
1863
1909
1910
1911
1918
1919
1920
1972
1973
1974
2394
2627
2628
2629
2630
2631
2632
2633
2634
2635
2636
2637
2638
2639
2640
2641
2642
2643
2644
2645
2646
2647
2648
2649
2650
2651
2652
2653
2654
2655
2656
2657
2666
2667
2668
2669
2670
2671
2674
2675
2678
2681
2682
2683
2684
2685
2686
2693
2694
2695
2696
2697
2698
2699
2700
2701
2702
2703
2704
2705
2706
2707
2713
2714
2715
2718
2719
2720
2721
2722
2723
2728
2729
2730
2731
2732
2733
2734
2735
2736
2737
2745
2746
2747
2754
2755
2756
2757
2758
2759
2773
2774
2775
2776
2777
2778
2779
2780
2781
2784
2785
2786
2787
2788
2789
2790
2791
2792
2793
2794
2795
2796
2797
2798
2799
2800
2818
2819
2820
2826
2827
2828
2829
2830
2831
2839
2840
2841
2846
2847
2848
2849
2850
2851
2852
2853
2854
2855
2856
2857
2864
2865
2866
2867
2868
2869
2870
2871
2872
2881
2882
2883
2884
2885
2886
2887
2888
2889
2890
2891
2892
2921
2922
2923
2924
2925
2926
2927
2928
2929
2930
2931
2932
2933
2934
2935
2936
2938
2939
2940
2941
2942
2943
2944
2945
2946
2947
2948
2949
2950
2951
2952
2953
2954
2955
2964
2965
2966
2967
2968
2969
2970
2971
2972
2973
2974
2975
2976
2977
2978
2979
2980
2981
2982
2984
2985
2986
2990
2991
2992
2994
2995
2996
2997
2998
2999
3000
3001
3002
3010
3011
3012
3013
3014
3015
3016
3017
3018
3019
3020
3021
3022
3023
3024
3029
3030
3031
3032
3033
3034
3046
3058
3389
3392
3393
3394
3395
3401
3402
3406
3407
3408
3411
3419
3423
3437
3446
3453
3465
3469
3470
3471
3472
3476
3477
3478
3479
3480
3481
3482
3483
3488
3491
3492
3493
3505
3506
3507
3508
3509
3512
3513
3514
3528
3529
3530
3531
3532
3533
3534
3535
3536
3550
3551
3552
3553
3554
3585
3586
3587
3588
3589
3590
3591
3611
3612
3613
3614
3615
3616
3617
3618
3619
3625
3626
3627
3628
3629
3630
3640
3641
3642
3647
3648
3651
3655
3656
3657
3659
3661
3663
3664
3666
3668
3670
3671
3672
3673
3674
3675
3677
3679
3681
3685
3686
3687
3689
3691
3693
3697
3698
3699
3700
3702
3704
3706
3708
3711
3712
3714
3717
3719
3722
3723
3725
3728
3729
3733
3734
3735
3742
3743
3744
3751
3752
3753
3754
3755
3756
3760
3761
3762
3763
3764
3765
3769
3770
3771
3775
3776
3777
3781
3782
3783
3787
3788
3789
3793
3794
3795
3796
3797
3801
3802
4090
4091
4092
4093
4094
4095
4096
4097
4098
4099
4100
4101
4102
4103
4104
4105
4106
4107
4108
4109
4110
4111
4112
4113
4114
4115
4116
4117
4118
4119
4120
4121
4122
4123
4124
4125
4131
4132
4133
4134
4135
4136
4137
4138
4139
4140
4141
4142
4143
4144
4145
4146
4147
4148
4149
4150
4151
4152
4153
4154
4155
4158
4159
4160
4161
4162
4163
4164
4165
4166
4167
4168
4169
4170
4171
4172
4173
4177
4178
4179
4180
4181
4182
4183
4184
4185
4186
4187
4188
4189
4190
4191
4192
4193
4194
4195
4196
4197
4198
4199
4200
4201
4204
4205
4206
4207
4208
4209
4210
4211
4212
4213
4214
4215
4216
4222
4223
4224
4225
4226
4227
4228
4229
4230
4231
4232
4233
4234
4235
4236
4237
4238
4239
4240
4241
4242
4243
4244
4245
4246
4247
4248
4249
4250
4251
4256
4257
4258
4259
4260
4261
4262
4263
4264
4265
4266
4267
4268
4269
4270
4271
4272
4273
4274
4275
4276
4277
4278
4279
4280
4281
4282
4283
4284
4285
4286
4287
4288
4289
4290
4291
4292
4293
4294
4295
4296
4297
4298
4299
4300
4301
4302
4303
4304
4305
4306
4307
4308
4309
4310
4311
4312
4313
4314
4315
4316
4317
4318
4319
4320
4321
4322
4323
4324
4325
4326
4327
4328
4329
4330
4331
4332
4333
4334
4335
4336
4337
4338
4339
4340
4341
4342
4343
4344
4345
4346
4347
4348
4349
4350
4351
4352
4353
4354
4355
4356
4357
4358
4359
4360
4361
4362
4363
4364
4365
4366
4367
4368
4369
4370
4371
4372
4373
4374
4375
4376
4377
4378
4379
4380
4381
4382
4383
4384
4385
4386
4387
4388
4389
4390
4391
4392
4393
4394
4395
4396
4397
4398
4399
4400
4401
4402
4403
4404
4405
4406
4407
4408
4409
4410
4411
4412
4413
4414
4415
4425
4426
4427
4428
4429
4430
4431
4432
4433
4434
4435
4436
4437
4438
4439
4440
4441
4442
4443
4444
4445
4446
4447
4448
4449
4450
4451
4452
4453
4454
4455
4456
4457
4458
4459
4460
4461
4462
4463
4464
4465
4466
4469
4470
4471
4472
4473
4474
4475
4476
4477
4478
4479
4480
4481
4482
4483
4484
4487
4488
4489
4490
4491
4492
4493
4494
4495
4496
4497
4498
4499
4500
4501
4502
4503
4504
4505
4506
4509
4513
4514
4532
4533
4534
4535
4536
4537
4538
4539
4540
4541
4542
4544
4548
4572
4573
4574
4575
4576
4577
4578
4579
4580
4581
4605
4606
4621
4622
4623
4624
4625
4692
4693
4694
4695
4696
4697
4698
4699
4700
4701
4702
4703
4704
4705
4706
4707
4708
4709
4710
4711
4712
4713
4714
4715
4716
4717
4718
4719
4720
4721
4722
4723
4724
4725
4726
4727
4728
4729
4730
4731
4732
4733
4734
4735
4736
4737
4738
4739
4740
4741
4742
4743
4744
4745
4746
4747
4748
4749
4750
4751
4752
4753
4754
4755
4756
4757
4758
4759
4760
4761
4762
4764
4765
4766
4767
4768
4769
4770
4771
4772
4773
4774
4775
4776
4777
4778
4779
4780
4781
4782
4783
4784
4785
4786
4787
4788
4789
4790
4791
4792
4793
4794
4795
4796
4797
4798
4799
4800
4801
4802
4803
4804
4805
4806
4807
4808
4809
4810
4811
4812
4813
4814
4815
4816
4817
4818
4819
4820
4821
4822
4823
4824
4825
4826
4827
4834
4835
4857
4858
4859
4860
4861
4862
4863
4864
4865
4866
4867
4868
4869
4870
4871
4872
4873
4874
4875
4876
4877
4878
4879
4880
4881
4882
4883
4884
4885
4886
4887
4888
4889
4890
4891
4892
4893
4894
4895
4896
4897
4898
4899
4900
4901
4902
4903
4904
4921
4922
4923
4924
4925
4926
4927
4928
4929
4930
4931
4932
4933
4934
4935
4936
4956
4958
4962
4979
4981
4982
4983
5348
5349
5350
5351
5352
5353
5355
5356
5357
5358
5359
5360
5362
5363
5364
5365
5366
5367
5368
5369
5370
5371
5372
5373
5374
5375
5381
5382
5383
5384
5387
5389
5390
5391
5392
5393
5397
5400
5401
5405
5407
5412
5413
5415
5416
5417
5419
5420
5421
5422
5423
5433
5441
5444
5451
5465
5467
5468
5469
5470
5473
5474
5475
5477
5478
5479
5480
5482
5483
5484
5485
5487
5488
5490
5494
5501
5502
5507
5524
5538
5539
5550
5551
5557
5563
5564
5569
5596
5597
5599
5602
5624
5626
5627
5636
5640
5642
5648
5649
5650
5668
5729
6018
6025
6027
6028
)


1329
(
37
38
441
442
445
446
447
448
449
450
451
452
453
454
455
456
457
458
459
460
461
462
463
464
465
466
467
468
469
470
471
472
473
474
484
485
486
487
488
489
490
491
492
493
494
495
496
497
498
499
500
501
502
503
504
505
506
507
508
509
510
511
512
513
514
515
516
517
518
519
520
524
525
526
527
528
529
530
531
532
533
534
535
536
537
538
539
540
541
546
547
548
549
550
551
552
553
554
555
556
557
558
559
560
561
562
563
564
565
566
567
568
569
570
571
572
573
574
575
576
577
578
579
580
581
584
585
586
587
588
589
590
591
592
594
595
596
597
598
599
605
606
607
608
609
610
611
612
613
614
615
616
617
618
619
620
621
622
623
624
625
626
627
628
629
630
631
632
633
634
635
636
637
638
639
640
646
647
648
649
650
651
652
653
654
655
656
657
658
664
666
667
670
671
672
673
674
675
676
677
678
679
680
681
682
683
684
685
686
687
688
689
690
691
692
693
710
711
712
713
714
715
716
717
718
719
720
721
738
739
740
741
742
743
744
745
746
747
748
749
750
751
752
763
764
765
766
767
768
772
773
774
775
776
777
778
779
780
781
782
783
784
785
786
787
788
789
790
791
792
793
794
795
796
797
798
799
800
801
805
806
813
814
815
816
825
827
834
838
841
845
846
848
849
851
853
863
868
870
871
891
909
916
917
939
941
942
944
957
959
961
962
987
988
989
1017
1030
1031
1032
1034
1036
1037
1038
1054
1055
1056
1057
1058
1060
1061
1062
1063
1064
1065
1084
1085
1086
1090
1091
1092
1093
1094
1095
1174
1175
1541
1542
1543
1544
1546
1553
1554
1557
1558
1575
1586
1587
1588
1589
1591
1596
1601
1620
1621
1622
1623
1624
1625
1626
1627
1628
1629
1633
1634
1663
1685
1686
1687
1688
1689
1690
1691
1692
1693
1694
1695
1696
1697
1698
1699
1700
1741
1761
1762
1763
1764
1765
1766
1767
1768
1769
1773
1774
1849
1850
1851
1858
1859
1860
1861
1862
1863
1909
1910
1911
1918
1919
1920
1972
1973
1974
2393
2629
2630
2631
2632
2633
2634
2635
2636
2637
2638
2639
2640
2641
2642
2643
2644
2645
2646
2647
2648
2649
2650
2651
2652
2653
2654
2655
2656
2657
2666
2667
2668
2669
2670
2671
2674
2675
2678
2681
2682
2683
2684
2685
2686
2693
2694
2695
2696
2697
2698
2699
2700
2701
2702
2703
2704
2705
2706
2707
2713
2714
2715
2718
2719
2720
2721
2722
2723
2728
2729
2730
2731
2732
2733
2734
2735
2736
2737
2745
2746
2747
2754
2755
2756
2757
2758
2759
2773
2774
2775
2776
2777
2778
2779
2780
2781
2784
2785
2786
2787
2788
2789
2790
2791
2792
2793
2794
2795
2796
2797
2798
2799
2800
2818
2819
2820
2826
2827
2828
2829
2830
2831
2839
2840
2841
2846
2847
2848
2849
2850
2851
2852
2853
2854
2855
2856
2857
2864
2865
2866
2867
2868
2869
2870
2871
2872
2881
2882
2883
2884
2885
2886
2887
2888
2889
2890
2891
2892
2921
2922
2923
2924
2925
2926
2927
2928
2929
2930
2931
2932
2933
2934
2935
2936
2938
2939
2940
2941
2942
2943
2944
2945
2946
2947
2948
2949
2950
2951
2952
2953
2954
2955
2964
2965
2966
2967
2968
2969
2970
2971
2972
2973
2974
2975
2976
2977
2978
2979
2980
2981
2982
2984
2985
2986
2990
2991
2992
2994
2995
2996
2997
2998
2999
3000
3001
3002
3010
3011
3012
3013
3014
3015
3016
3017
3018
3019
3020
3021
3022
3023
3024
3029
3030
3031
3032
3033
3034
3046
3058
3384
3392
3393
3394
3395
3399
3401
3402
3403
3406
3407
3408
3411
3415
3417
3419
3423
3437
3438
3446
3453
3458
3464
3465
3469
3470
3471
3472
3473
3475
3476
3477
3478
3479
3480
3481
3482
3483
3488
3491
3492
3493
3505
3506
3507
3508
3509
3512
3513
3514
3528
3529
3530
3531
3532
3533
3534
3535
3536
3550
3551
3552
3553
3554
3585
3586
3587
3588
3589
3590
3591
3611
3612
3613
3614
3615
3616
3617
3618
3619
3625
3626
3627
3628
3629
3630
3640
3641
3642
3647
3648
3651
3655
3656
3657
3659
3661
3663
3664
3666
3668
3670
3671
3672
3673
3674
3675
3677
3679
3681
3685
3686
3687
3689
3691
3693
3697
3698
3699
3700
3702
3704
3706
3708
3711
3712
3714
3717
3719
3722
3723
3725
3728
3729
3733
3734
3735
3742
3743
3744
3751
3752
3753
3754
3755
3756
3760
3761
3762
3763
3764
3765
3769
3770
3771
3775
3776
3777
3781
3782
3783
3787
3788
3789
3794
3795
3797
3801
3802
3817
3818
3819
3820
3822
3823
4075
4076
4077
4082
4087
4088
4089
4091
4092
4093
4094
4095
4096
4097
4098
4099
4100
4101
4102
4103
4104
4105
4106
4107
4108
4109
4110
4111
4112
4113
4114
4116
4117
4123
4124
4125
4131
4132
4136
4138
4141
4142
4143
4144
4145
4146
4147
4148
4149
4150
4151
4152
4153
4154
4155
4158
4161
4162
4163
4164
4165
4166
4167
4168
4169
4171
4172
4173
4177
4178
4179
4180
4181
4182
4183
4184
4185
4186
4187
4188
4189
4190
4191
4192
4193
4194
4195
4196
4197
4198
4199
4200
4201
4204
4205
4206
4207
4208
4209
4210
4211
4212
4213
4214
4225
4226
4227
4228
4229
4230
4231
4232
4233
4234
4235
4236
4237
4238
4239
4240
4241
4242
4243
4244
4245
4246
4247
4248
4249
4250
4251
4256
4257
4258
4259
4260
4261
4262
4285
4286
4288
4292
4293
4296
4332
4334
4335
4346
4347
4348
4365
4366
4367
4426
4427
4428
4429
4430
4431
4485
4486
4487
4489
4491
4492
4502
4503
4954
4955
4962
5351
5352
5353
5354
5355
5356
5357
5358
5359
5360
5361
5362
5363
5364
5365
5366
5367
5368
5369
5370
5371
5372
5373
5374
5375
5381
5382
5383
5384
5385
5387
5389
5390
5391
5392
5393
5397
5400
5401
5405
5407
5408
5409
5410
5411
5412
5413
5414
5415
5416
5417
5419
5420
5421
5422
5428
5429
5431
5433
5434
5438
5441
5444
5450
5451
5464
5465
5466
5467
5468
5469
5470
5471
5472
5473
5474
5475
5476
5477
5478
5479
5480
5481
5482
5483
5484
5485
5486
5487
5488
5489
5490
5493
5494
5499
5500
5501
5502
5503
5507
5508
5509
5510
5511
5512
5513
5514
5515
5516
5517
5518
5519
5520
5524
5526
5532
5533
5534
5535
5538
5539
5550
5551
5552
5554
5557
5558
5561
5562
5563
5564
5565
5569
5570
5574
5593
5595
5596
5597
5599
5600
5602
5606
5612
5613
5615
5619
5622
5624
5625
5626
5627
5628
5629
5636
5637
5638
5639
5640
5641
5642
5643
5644
5645
5646
5647
5648
5649
5650
5651
5652
5654
5655
5657
5658
5660
5661
5663
5668
5669
5670
5687
5688
5689
5690
5692
5712
5716
5718
5719
5721
5722
5724
5725
5726
5727
5728
5732
5733
5734
5735
5736
5737
5738
5739
5740
5741
5743
5744
5745
5747
5748
5749
5755
5756
5772
5774
5778
5785
5788
5789
5790
5791
5794
5798
5803
5805
5806
5811
5813
5816
5818
5819
5823
5824
5825
5831
5832
5833
5838
5850
5851
5853
5855
5856
5858
5859
5860
5861
5862
5863
5864
5869
5870
5871
5872
5873
5876
5877
5878
5880
5881
5883
5887
5889
5890
5891
5892
5894
5898
5899
5900
5901
5902
5903
5913
5914
5915
5916
5917
5954
5957
5965
5966
5976
5977
5978
5979
5980
5981
5986
5987
5988
5990
5991
5992
5993
5994
5995
5996
5997
5999
6015
6016
6017
6018
6019
6021
6023
6025
6026
6027
6028
)


461
(
4087
4088
4089
4090
4123
4124
4125
4133
4134
4135
4137
4139
4140
4159
4160
4170
4215
4216
4222
4223
4224
4263
4264
4265
4266
4267
4268
4269
4270
4271
4272
4273
4274
4275
4276
4277
4278
4279
4280
4281
4282
4283
4284
4287
4289
4290
4291
4294
4295
4297
4298
4299
4300
4301
4302
4303
4304
4305
4306
4307
4308
4309
4310
4311
4312
4313
4314
4315
4316
4317
4318
4319
4320
4321
4322
4323
4324
4325
4326
4327
4328
4329
4330
4331
4333
4336
4337
4338
4339
4340
4341
4342
4343
4344
4345
4349
4350
4351
4352
4353
4354
4355
4356
4357
4358
4359
4360
4361
4362
4363
4364
4368
4369
4370
4371
4372
4373
4374
4375
4376
4377
4378
4379
4380
4381
4382
4383
4384
4385
4386
4387
4388
4389
4390
4391
4392
4393
4394
4395
4396
4397
4398
4399
4400
4401
4402
4403
4404
4405
4406
4407
4408
4409
4410
4411
4412
4413
4414
4415
4425
4432
4433
4434
4435
4436
4437
4438
4439
4440
4441
4442
4443
4444
4445
4446
4447
4448
4449
4450
4451
4452
4453
4454
4455
4456
4457
4458
4459
4460
4461
4462
4463
4464
4465
4466
4469
4470
4471
4472
4473
4474
4475
4476
4477
4478
4479
4480
4481
4482
4483
4484
4485
4486
4502
4504
4505
4506
4509
4513
4514
4532
4533
4534
4535
4536
4537
4538
4539
4540
4541
4542
4544
4548
4572
4573
4574
4575
4576
4577
4578
4579
4580
4581
4605
4606
4621
4622
4623
4624
4625
4692
4693
4694
4695
4696
4697
4698
4699
4700
4701
4702
4703
4704
4705
4706
4707
4708
4709
4710
4711
4712
4713
4714
4715
4716
4717
4718
4719
4720
4721
4722
4723
4724
4725
4726
4727
4728
4729
4730
4731
4732
4733
4734
4735
4736
4737
4738
4739
4740
4741
4742
4743
4744
4745
4746
4747
4748
4749
4750
4751
4752
4753
4754
4755
4756
4757
4758
4759
4760
4761
4762
4764
4765
4766
4767
4768
4769
4770
4771
4772
4773
4774
4775
4776
4777
4778
4779
4780
4781
4782
4783
4784
4785
4786
4787
4788
4789
4790
4791
4792
4793
4794
4795
4796
4797
4798
4799
4800
4801
4802
4803
4804
4805
4806
4807
4808
4809
4810
4811
4812
4813
4814
4815
4816
4817
4818
4819
4820
4821
4822
4823
4824
4825
4826
4827
4834
4835
4857
4858
4859
4860
4861
4862
4863
4864
4865
4866
4867
4868
4869
4870
4871
4872
4873