/*--------------------------------*- C++ -*----------------------------------*\
  =========                 |
  \\      /  F ield         | OpenFOAM: The Open Source CFD Toolbox
   \\    /   O peration     | Website:  https://openfoam.org
    \\  /    A nd           | Version:  8
     \\/     M anipulation  |
\*---------------------------------------------------------------------------*/
/*   Windows 32 and 64 bit porting by blueCAPE: http://www.bluecape.com.pt   *\
|  Based on Windows porting (2.0.x v4) by Symscape: http://www.symscape.com   |
\*---------------------------------------------------------------------------*/
FoamFile
{
    version     2.0;
    format      ascii;
    class       scalarListList;
    location    "constant/vegetation";
    object      sunViewCoeff;
}
// * * * * * * * * * * * * * * * * * * * * * * * * * * * * * * * * * * * * * //


5
(

398
(
0
0
0
0
717.08284
717.08284
717.08284
717.08284
0
410.19893
536.02895
376.42432
166.28716
717.08284
717.08284
717.08284
0
362.25143
717.08284
580.20955
302.38541
0
214.72585
0
0
0
254.24766
275.30688
0
0
0
0
0
0
0
0
0
0
0
717.08284
717.08284
717.08284
717.08284
717.08284
0
0
0
0
0
0
0
0
0
0
0
0
0
0
0
0
0
0
0
0
0
0
0
0
0
717.08284
717.08284
0
0
0
0
0
0
0
0
0
0
0
0
0
0
0
0
717.08284
717.08284
717.08284
0
0
0
0
0
0
0
0
0
0
0
0
0
0
0
0
0
0
0
0
0
0
0
0
0
717.08284
717.08284
0
0
0
0
0
0
0
0
0
0
0
0
0
717.08284
717.08284
717.08284
717.08284
717.08284
0
0
0
0
0
0
0
0
0
0
0
0
0
0
0
0
0
0
0
0
0
0
0
0
0
0
0
0
0
0
717.08284
717.08284
717.08284
717.08284
0
0
0
0
0
0
0
0
0
0
0
0
0
0
0
0
0
0
0
0
0
0
0
0
0
0
0
0
0
0
0
0
0
0
0
0
0
0
0
0
0
0
0
0
0
0
0
0
0
0
0
0
0
0
0
0
0
0
0
0
0
0
0
0
0
0
0
0
0
0
0
0
0
0
0
0
0
0
0
0
0
0
0
0
0
0
0
0
0
0
0
0
0
0
0
0
0
0
0
0
0
0
0
0
0
0
0
0
0
0
0
0
0
0
0
0
0
0
0
0
0
0
0
0
0
0
0
0
0
0
0
0
0
0
0
0
0
0
0
0
0
0
0
0
0
0
0
0
0
0
0
0
0
0
0
0
0
0
0
0
717.08284
717.08284
717.08284
717.08284
717.08284
717.08284
717.08284
717.08284
717.08284
0
0
0
0
0
0
0
0
0
0
0
0
0
0
0
0
0
0
0
0
0
0
0
0
0
0
0
0
0
0
0
0
0
0
0
0
0
0
0
0
0
0
717.08284
717.08284
0
0
0
0
0
0
0
0
0
0
0
0
0
0
0
0
)


398
(
0
0
0
0
585.76158
585.76158
585.76158
585.76158
0
0
437.86457
0
0
0
0
0
0
295.91138
0
0
0
0
0
0
0
0
0
0
0
0
0
0
0
0
0
0
0
0
0
585.76158
585.76158
585.76158
585.76158
585.76158
0
0
0
0
0
0
0
0
0
0
0
0
0
0
0
0
0
0
0
0
0
0
0
0
0
585.76158
585.76158
0
0
0
0
0
0
0
0
0
0
0
0
0
0
0
0
585.76158
585.76158
585.76158
0
0
0
0
0
0
0
0
0
0
0
0
0
0
0
0
0
0
0
0
0
0
0
0
0
585.76158
585.76158
0
0
0
0
0
0
0
0
0
0
0
0
0
585.76158
585.76158
585.76158
585.76158
585.76158
0
0
0
0
0
0
0
0
0
0
0
0
0
0
0
0
0
0
0
0
0
0
0
0
0
0
0
0
0
0
585.76158
585.76158
585.76158
585.76158
0
0
0
0
0
0
0
0
0
0
0
0
0
0
0
0
0
0
0
0
0
0
0
0
0
0
0
0
0
0
0
0
0
0
0
0
0
0
0
0
0
0
0
0
0
0
0
0
0
0
0
0
0
0
0
0
0
0
0
0
0
0
0
0
0
0
0
0
0
0
0
0
0
0
0
0
0
0
0
0
0
0
0
0
0
0
0
0
0
0
0
0
0
0
0
0
0
0
0
0
0
0
0
0
0
0
0
0
0
0
0
0
0
0
0
0
0
0
0
0
0
0
0
0
0
0
0
0
0
0
0
0
0
0
0
0
0
0
0
0
0
0
0
0
0
0
0
0
0
0
0
0
0
0
0
0
0
0
0
0
585.76158
585.76158
585.76158
585.76158
585.76158
585.76158
585.76158
585.76158
585.76158
0
0
0
0
0
0
0
0
0
0
0
0
0
0
0
0
0
0
0
0
0
0
0
0
0
0
0
0
0
0
0
0
0
0
0
0
0
0
0
0
0
0
585.76158
585.76158
0
0
0
0
0
0
0
0
0
0
0
0
0
0
0
0
)


398
(
0
0
0
0
0
536.2201
536.2201
536.2201
0
0
400.83165
0
0
0
0
0
0
536.2201
0
0
0
0
0
0
0
0
0
0
0
0
0
0
0
0
0
0
0
0
0
536.2201
536.2201
536.2201
536.2201
536.2201
0
0
0
0
0
0
0
0
0
0
0
0
0
0
0
0
0
0
0
0
0
0
0
0
0
536.2201
536.2201
0
0
0
0
0
0
0
0
0
0
0
0
0
0
0
0
536.2201
536.2201
536.2201
0
0
0
0
0
0
0
0
0
0
0
0
0
0
0
0
0
0
0
0
0
0
0
0
0
536.2201
536.2201
0
0
0
0
0
0
0
0
0
0
0
0
0
536.2201
536.2201
536.2201
536.2201
536.2201
0
0
0
0
0
0
0
0
0
0
0
0
0
0
0
0
0
0
0
0
0
0
0
0
0
0
0
0
0
0
536.2201
536.2201
536.2201
536.2201
0
0
0
0
0
0
0
0
0
0
0
0
0
0
0
0
0
0
0
0
0
0
0
0
0
0
0
0
0
0
0
0
0
0
0
0
0
0
0
0
0
0
0
0
0
0
0
0
0
0
0
0
0
0
0
0
0
0
0
0
0
0
0
0
0
0
0
0
0
0
0
0
0
0
0
0
0
0
0
0
0
0
0
0
0
0
0
0
0
0
0
0
0
0
0
0
0
0
0
0
0
0
0
0
0
0
0
0
0
0
0
0
0
0
0
0
0
0
0
0
0
0
0
0
0
0
0
0
0
0
0
0
0
0
0
0
0
0
0
0
0
0
0
0
0
0
0
0
0
0
0
0
0
0
0
0
0
0
0
0
536.2201
536.2201
536.2201
536.2201
536.2201
536.2201
536.2201
536.2201
536.2201
0
0
0
0
0
0
0
0
0
0
0
0
0
0
0
0
0
0
0
0
0
0
0
0
0
0
0
0
0
0
0
0
0
0
0
0
0
0
0
0
0
0
536.2201
536.2201
0
0
0
0
0
0
0
0
0
0
0
0
0
0
0
0
)


398
(
0
0
0
0
0
411.8157
411.8157
411.8157
69.486926
410.09827
411.8157
0
0
0
102.95192
0
308.41314
411.8157
0
0
0
0
0
120.33488
85.149034
0
0
0
0
0
0
0
0
0
0
0
0
0
0
411.8157
411.8157
411.8157
411.8157
411.8157
0
0
0
0
0
0
0
0
0
0
0
0
0
0
0
0
0
0
0
0
0
0
0
0
0
411.8157
411.8157
0
0
0
0
0
0
0
0
0
0
0
0
0
0
0
0
411.8157
411.8157
411.8157
0
0
0
0
0
0
0
0
0
0
0
0
0
0
0
0
0
0
0
0
0
0
0
0
0
411.8157
411.8157
0
0
0
0
0
0
0
0
0
0
0
0
0
411.8157
411.8157
411.8157
411.8157
411.8157
0
0
0
0
0
0
0
0
0
0
0
0
0
0
0
0
0
0
0
0
0
0
0
0
0
0
0
0
0
0
411.8157
411.8157
411.8157
411.8157
0
0
0
0
0
0
0
0
0
0
0
0
0
0
0
0
0
0
0
0
0
0
0
0
0
0
0
0
0
0
0
0
0
0
0
0
0
0
0
0
0
0
0
0
0
0
0
0
0
0
0
0
0
0
0
0
0
0
0
0
0
0
0
0
0
0
0
0
0
0
0
0
0
0
0
0
0
0
0
0
0
0
0
0
0
0
0
0
0
0
0
0
0
0
0
0
0
0
0
0
0
0
0
0
0
0
0
0
0
0
0
0
0
0
0
0
0
0
0
0
0
0
0
0
0
0
0
0
0
0
0
0
0
0
0
0
0
0
0
0
0
0
0
0
0
0
0
0
0
0
0
0
0
0
0
0
0
0
0
0
411.8157
411.8157
411.8157
411.8157
411.8157
411.8157
411.8157
411.8157
411.8157
0
0
0
0
0
0
0
0
0
0
0
0
0
0
0
0
0
0
0
0
0
0
0
0
0
0
0
0
0
0
0
0
0
0
0
0
0
0
0
0
0
0
411.8157
411.8157
0
0
0
0
0
0
0
0
0
0
0
0
0
0
0
0
)


398
(
0
0
0
0
76.429304
284.42858
284.42858
284.42858
118.78635
235.70417
284.42858
0
0
0
205.92978
0
173.43224
284.42858
0
0
0
0
0
143.54256
58.207137
0
0
0
0
33.794798
27.284879
0
0
0
0
0
0
0
0
284.42858
284.42858
284.42858
284.42858
284.42858
13.053587
13.053587
0
0
0
13.053587
0
13.053587
0
0
13.053587
13.053587
13.053587
13.053587
13.053587
13.053587
2.5023647
1.2772884
1.2747372
1.7192284
13.053587
13.053587
13.053587
13.053587
13.053587
284.42858
284.42858
13.053587
0
0
13.053587
13.053587
13.053587
13.053587
13.053587
13.053587
13.053587
1.575114
2.0394775
0
13.053587
13.053587
13.053587
284.42858
284.42858
284.42858
13.053587
13.053587
13.053587
13.053587
13.053587
13.053587
13.053587
13.053587
13.053587
13.053587
13.053587
13.053587
13.053587
13.053587
13.053587
13.053587
3.3454726
3.1968114
13.053587
13.053587
13.053587
13.053587
13.053587
13.053587
13.053587
284.42858
284.42858
13.053587
13.053587
13.053587
13.053587
13.053587
13.053587
13.053587
13.053587
13.053587
13.053587
13.053587
0
0
284.42858
284.42858
284.42858
284.42858
284.42858
0
0
0
13.053587
13.053587
13.053587
13.053587
13.053587
13.053587
13.053587
13.053587
13.053587
13.053587
13.053587
13.053587
3.5235583
3.6835666
2.7267607
2.6399861
1.772
2.0767491
13.053587
13.053587
13.053587
13.053587
13.053587
13.053587
13.053587
13.053587
13.053587
284.42858
284.42858
284.42858
284.42858
13.053587
13.053587
13.053587
1.0466457
2.2686925
1.328138
1.9865041
0
0
0
0
0
0
0
0
0
0
0
0
0
0
0
0
0
0
0
0
0
0
1.386953
1.3888767
0
1.6024353
0
0
0
2.3921381
1.6660897
0
0
1.9443748
0
0
0
0
0
0
0
0
0
0
0
0
0
0
0
0
0
0
0
0
0
0
0
0
0
0
0
0
0
0
0
0
0
0
0
13.053587
0
13.053587
13.053587
0
0
0
0
0
0
0
0
0
0
1.1524929
1.1333487
1.2222991
0
0
0
0
0
0
0
0
0
0
0
0
0
0
0
0
1.2224174
1.3306989
1.2749997
0
0
0
0
0
0
0
0
0
0
0
0
0
0
0
0
0
0
0
0
0
0
0
0
0
0
0
0
0
0
0
0
0
0
0
0
0
0
0
0
0
0
0
0
0
0
0
0
284.42858
284.42858
284.42858
284.42858
284.42858
284.42858
284.42858
284.42858
284.42858
0
1.2224498
1.3285898
1.274384
1.4954901
1.4433964
1.3295347
0
0
0
0
0
0
0
0
0
0
0
0
0
0
0
0
0
0
0
0
0
0
0
0
0
0
0
0
0
0
0
0
0
0
0
284.42858
284.42858
0
0
0
0
0
0
0
0
0
0
0
0
0
0
0
0
)

)


// ************************************************************************* //
