/*--------------------------------*- C++ -*----------------------------------*\
  =========                 |
  \\      /  F ield         | OpenFOAM: The Open Source CFD Toolbox
   \\    /   O peration     | Website:  https://openfoam.org
    \\  /    A nd           | Version:  8
     \\/     M anipulation  |
\*---------------------------------------------------------------------------*/
/*   Windows 32 and 64 bit porting by blueCAPE: http://www.bluecape.com.pt   *\
|  Based on Windows porting (2.0.x v4) by Symscape: http://www.symscape.com   |
\*---------------------------------------------------------------------------*/
FoamFile
{
    version     2.0;
    format      ascii;
    class       scalarListList;
    location    "constant/vegetation";
    object      sunViewCoeff;
}
// * * * * * * * * * * * * * * * * * * * * * * * * * * * * * * * * * * * * * //


5
(

472
(
501.05251
501.05251
501.05251
249.89375
328.95059
501.05251
501.05251
501.05251
501.05251
399.56185
501.05251
472.63672
501.05251
501.05251
389.00909
501.05251
257.51978
160.05982
337.01588
501.05251
193.06959
501.05251
501.05251
501.05251
501.05251
501.05251
501.05251
501.05251
501.05251
501.05251
501.05251
479.43292
501.05251
501.05251
501.05251
501.05251
249.81144
501.05251
501.05251
501.05251
501.05251
501.05251
501.05251
214.31371
250.20403
417.08769
501.05251
501.05251
501.05251
501.05251
125.457
501.05251
501.05251
501.05251
420.15981
27.577588
501.05251
501.05251
501.05251
0
0
501.05251
501.05251
436.46797
501.05251
251.68462
0
0
0
501.05251
501.05251
501.05251
501.05251
501.05251
501.05251
501.05251
501.05251
501.05251
501.05251
479.28632
404.44686
501.05251
501.05251
501.05251
501.05251
501.05251
486.42248
363.54106
411.46618
501.05251
501.05251
501.05251
221.2353
501.05251
501.05251
501.05251
265.57197
501.05251
422.94397
248.96916
501.05251
501.05251
501.05251
501.05251
501.05251
501.05251
0
0
0
0
0
0
0
0
0
0
0
0
0
0
0
0
0
0
0
0
0
0
0
0
0
0
0
0
0
0
0
0
0
0
0
0
0
0
0
0
0
0
0
0
0
0
0
0
0
0
0
0
0
0
0
0
0
0
0
0
0
0
0
0
0
0
0
0
0
0
0
0
0
0
0
0
0
0
0
0
0
0
0
0
0
0
0
0
0
0
0
0
0
0
0
0
0
0
0
0
0
0
0
0
0
0
0
0
0
0
0
0
0
0
0
0
0
0
0
0
0
0
0
0
0
0
87.179411
87.179411
87.179411
87.179411
87.179411
87.179411
87.179411
87.179411
87.179411
87.179411
87.179411
87.179411
87.179411
87.179411
87.179411
87.179411
87.179411
87.179411
87.179411
87.179411
87.179411
87.179411
87.179411
87.179411
87.179411
87.179411
87.179411
87.179411
87.179411
87.179411
87.179411
87.179411
87.179411
87.179411
87.179411
87.179411
87.179411
87.179411
87.179411
87.179411
87.179411
87.179411
87.179411
87.179411
87.179411
87.179411
87.179411
87.179411
87.179411
87.179411
87.179411
87.179411
87.179411
87.179411
87.179411
87.179411
87.179411
87.179411
87.179411
87.179411
87.179411
87.179411
87.179411
87.179411
87.179411
87.179411
87.179411
87.179411
87.179411
87.179411
87.179411
87.179411
87.179411
87.179411
87.179411
87.179411
87.179411
87.179411
87.179411
87.179411
87.179411
87.179411
87.179411
87.179411
87.179411
87.179411
87.179411
87.179411
87.179411
87.179411
87.179411
87.179411
87.179411
87.179411
87.179411
87.179411
87.179411
0
0
87.179411
87.179411
87.179411
87.179411
87.179411
87.179411
0
87.179411
87.179411
0
87.179411
87.179411
87.179411
87.179411
87.179411
87.179411
87.179411
87.179411
87.179411
0
87.179411
87.179411
0
0
87.179411
87.179411
87.179411
87.179411
87.179411
87.179411
87.179411
87.179411
87.179411
87.179411
87.179411
87.179411
87.179411
87.179411
87.179411
87.179411
87.179411
87.179411
87.179411
87.179411
87.179411
0
0
87.179411
0
87.179411
0
87.179411
0
87.179411
87.179411
87.179411
0
87.179411
0
87.179411
0
0
0
87.179411
0
87.179411
87.179411
87.179411
87.179411
87.179411
21.84193
155.21486
161.81283
0
0
29.393286
394.41187
189.80198
0
0
2.5857419
365.10043
0
40.415466
202.93003
147.84022
163.29071
323.6187
10.525993
35.431442
466.18201
39.369268
49.001826
8.5296278
0
0
0
0
329.42897
265.23459
502.76952
0
0
0
7.8187075
36.616465
86.170802
0
0
462.05815
19.877879
4.7620804
0
74.044946
0
2.7473586
80.426292
25.075832
0
229.99897
385.44922
0
85.90431
268.85878
402.15047
0
4.1676718
283.49248
192.22184
54.464808
0
0
73.537499
187.64883
37.031326
103.1788
350.66266
183.23238
0
75.738882
0
)


472
(
284.54856
284.54856
284.54856
243.14933
171.57845
284.54856
284.54856
284.54856
284.54856
139.36444
284.54856
263.2525
284.54856
284.54856
284.54856
284.54856
114.33391
110.89831
194.36305
284.54856
99.916298
284.54856
284.54856
284.54856
284.54856
284.54856
284.54856
213.57482
284.54856
284.54856
284.54856
284.54856
284.54856
284.54856
284.54856
284.54856
284.535
284.54856
284.54856
284.54856
284.54856
284.54856
284.54856
121.8014
71.145806
189.38576
284.54856
284.54856
284.54856
284.54856
213.39403
284.54856
284.54856
284.54856
284.54856
279.58195
284.54856
284.54856
284.54856
284.54856
284.54856
284.54856
284.54856
235.84581
284.54856
284.54856
284.54856
284.54856
284.54856
284.54856
284.54856
284.54856
284.54856
276.65676
284.54856
284.54856
284.54856
191.20927
284.54856
271.70041
255.1167
284.54856
284.54856
270.53498
284.54856
284.54856
284.54856
68.53595
284.54856
284.54856
284.54856
284.54856
168.30677
284.54856
284.54856
284.54856
180.28113
284.54856
240.12804
57.865463
260.18246
284.54856
284.54856
284.54856
284.54856
284.54856
23.719504
23.719504
23.719504
23.719504
23.719504
23.719504
23.719504
23.719504
23.719504
23.719504
23.719504
23.719504
23.719504
23.719504
23.719504
23.719504
23.719504
23.719504
23.719504
23.719504
23.719504
23.719504
23.719504
23.719504
23.719504
23.719504
23.719504
23.719504
23.719504
23.719504
23.719504
23.719504
23.719504
23.719504
23.719504
23.719504
23.719504
23.719504
23.719504
23.719504
23.719504
23.719504
23.719504
23.719504
23.719504
23.719504
23.719504
23.719504
23.719504
23.719504
23.719504
23.719504
23.719504
23.719504
23.719504
23.719504
23.719504
23.719504
23.719504
23.719504
23.719504
23.719504
23.719504
23.719504
23.719504
23.719504
23.719504
23.719504
23.719504
23.719504
23.719504
23.719504
23.719504
23.719504
23.719504
23.719504
23.719504
23.719504
23.719504
23.719504
23.719504
23.719504
23.719504
23.719504
23.719504
23.719504
23.719504
23.719504
23.719504
23.719504
23.719504
23.719504
23.719504
23.719504
23.719504
23.719504
23.719504
23.719504
23.719504
23.719504
23.719504
23.719504
23.719504
23.719504
23.719504
23.719504
23.719504
23.719504
23.719504
23.719504
23.719504
23.719504
23.719504
23.719504
23.719504
23.719504
23.719504
23.719504
23.719504
23.719504
23.719504
23.719504
23.719504
23.719504
23.719504
23.719504
50.690264
50.690264
50.690264
50.690264
50.690264
50.690264
50.690264
50.690264
50.690264
50.690264
50.690264
50.690264
50.690264
50.690264
50.690264
50.690264
50.690264
50.690264
50.690264
50.690264
50.690264
50.690264
50.690264
50.690264
50.690264
50.690264
50.690264
50.690264
50.690264
50.690264
50.690264
50.690264
50.690264
50.690264
50.690264
50.690264
50.690264
50.690264
50.690264
50.690264
50.690264
50.690264
50.690264
50.690264
50.690264
50.690264
50.690264
50.690264
50.690264
50.690264
50.690264
50.690264
50.690264
50.690264
50.690264
50.690264
50.690264
50.690264
50.690264
50.690264
50.690264
50.690264
50.690264
50.690264
50.690264
50.690264
50.690264
50.690264
50.690264
50.690264
50.690264
50.690264
50.690264
50.690264
50.690264
50.690264
50.690264
50.690264
50.690264
50.690264
50.690264
50.690264
50.690264
50.690264
50.690264
50.690264
50.690264
50.690264
50.690264
50.690264
50.690264
50.690264
50.690264
50.690264
50.690264
50.690264
50.690264
23.719504
23.719504
50.690264
50.690264
50.690264
50.690264
50.690264
50.690264
23.719504
50.690264
50.690264
23.719504
50.690264
50.690264
50.690264
50.690264
50.690264
50.690264
50.690264
50.690264
50.690264
23.719504
50.690264
50.690264
23.719504
23.719504
50.690264
50.690264
50.690264
50.690264
50.690264
50.690264
50.690264
50.690264
50.690264
50.690264
50.690264
50.690264
50.690264
50.690264
50.690264
50.690264
50.690264
50.690264
50.690264
50.690264
50.690264
23.719504
23.719504
50.690264
23.719504
50.690264
23.719504
50.690264
23.719504
50.690264
50.690264
50.690264
23.719504
50.690264
23.719504
50.690264
23.719504
23.719504
23.719504
50.690264
23.719504
50.690264
50.690264
50.690264
50.690264
50.690264
1.5404679
151.54702
114.90056
0
33.586915
0
225.06719
62.245939
0
0
3.8439793
167.74688
0
10.834424
138.49389
24.903554
159.50069
150.56177
3.3662108
0
290.45404
25.130329
14.48904
64.522234
0
11.530742
0
0
114.62727
167.47538
284.58525
5.5613355
0
0
29.05434
0
54.211651
11.679446
0
223.27888
35.524246
2.0639804
0
2.4795378
18.030516
31.697871
7.3538879
8.9020184
0
138.54943
165.50409
0
118.75471
154.50894
262.84681
0
60.690601
96.167559
166.93406
27.834603
23.222281
13.105797
80.871397
84.801007
0
89.310043
197.55344
33.178736
0
12.725359
23.902656
)


472
(
247.54772
247.54772
247.54772
247.54772
224.05605
247.54772
247.54772
247.54772
247.54772
114.87152
247.54772
231.68237
247.54772
247.54772
247.54772
247.54772
124.59074
201.45598
82.084287
247.54772
176.09605
247.54772
247.54772
247.54772
247.54772
247.54772
247.54772
153.14343
210.22354
247.54772
247.54772
247.54772
247.54772
247.54772
247.54772
247.54772
247.54772
247.54772
247.54772
247.54772
247.54772
247.50209
247.54772
177.07173
0
123.47453
229.8905
247.54772
185.51686
247.54772
247.54772
247.54772
247.54772
247.54772
247.54772
242.1698
238.81718
247.54772
247.54772
247.54772
247.54772
247.54772
247.54772
151.89771
247.54772
247.54772
247.54772
247.54772
247.54772
247.54772
247.54772
247.54772
247.54772
236.98678
247.54772
247.54772
247.54772
54.078947
247.54772
247.54772
247.54772
247.54772
247.54772
213.63863
230.11908
247.54772
247.54772
103.64385
247.54772
247.54772
247.54772
247.54772
213.99956
247.54772
247.54772
157.0583
216.34715
247.54772
247.54772
63.013612
169.92454
247.54772
247.54772
247.54772
247.54772
247.54772
83.269254
83.269254
83.269254
83.269254
83.269254
83.269254
83.269254
83.269254
83.269254
83.269254
83.269254
83.269254
83.269254
83.269254
83.269254
83.269254
83.269254
83.269254
83.269254
83.269254
83.269254
83.269254
83.269254
83.269254
83.269254
83.269254
83.269254
83.269254
83.269254
83.269254
83.269254
83.269254
83.269254
83.269254
83.269254
83.269254
83.269254
83.269254
83.269254
83.269254
83.269254
83.269254
83.269254
83.269254
83.269254
83.269254
83.269254
83.269254
83.269254
83.269254
83.269254
83.269254
83.269254
83.269254
83.269254
83.269254
83.269254
83.269254
83.269254
83.269254
83.269254
83.269254
83.269254
83.269254
83.269254
83.269254
83.269254
83.269254
83.269254
83.269254
83.269254
83.269254
83.269254
83.269254
83.269254
83.269254
83.269254
83.269254
83.269254
83.269254
83.269254
83.269254
83.269254
83.269254
83.269254
83.269254
83.269254
83.269254
83.269254
83.269254
83.269254
83.269254
83.269254
83.269254
83.269254
83.269254
83.269254
83.269254
83.269254
83.269254
83.269254
83.269254
83.269254
83.269254
83.269254
83.269254
83.269254
83.269254
83.269254
83.269254
83.269254
83.269254
83.269254
83.269254
83.269254
83.269254
83.269254
83.269254
83.269254
83.269254
83.269254
83.269254
83.269254
83.269254
83.269254
83.269254
38.501412
38.501412
38.501412
38.501412
38.501412
38.501412
38.501412
38.501412
38.501412
38.501412
38.501412
38.501412
38.501412
38.501412
38.501412
38.501412
38.501412
38.501412
38.501412
38.501412
38.501412
38.501412
38.501412
38.501412
38.501412
38.501412
38.501412
38.501412
38.501412
38.501412
38.501412
38.501412
38.501412
38.501412
38.501412
38.501412
38.501412
38.501412
38.501412
38.501412
38.501412
38.501412
38.501412
38.501412
38.501412
38.501412
38.501412
38.501412
38.501412
38.501412
38.501412
38.501412
38.501412
38.501412
38.501412
38.501412
38.501412
38.501412
38.501412
38.501412
38.501412
38.501412
38.501412
38.501412
38.501412
38.501412
38.501412
38.501412
38.501412
38.501412
38.501412
38.501412
38.501412
38.501412
38.501412
38.501412
38.501412
38.501412
38.501412
38.501412
38.501412
38.501412
38.501412
38.501412
38.501412
38.501412
38.501412
38.501412
38.501412
38.501412
38.501412
38.501412
38.501412
38.501412
38.501412
38.501412
38.501412
83.269254
83.269254
38.501412
38.501412
38.501412
38.501412
38.501412
38.501412
83.269254
38.501412
38.501412
83.269254
38.501412
38.501412
38.501412
38.501412
38.501412
38.501412
38.501412
38.501412
38.501412
83.269254
38.501412
38.501412
83.269254
83.269254
38.501412
38.501412
38.501412
38.501412
38.501412
38.501412
38.501412
38.501412
38.501412
38.501412
38.501412
38.501412
38.501412
38.501412
38.501412
38.501412
38.501412
38.501412
38.501412
38.501412
38.501412
83.269254
83.269254
38.501412
83.269254
38.501412
83.269254
38.501412
83.269254
38.501412
38.501412
38.501412
83.269254
38.501412
83.269254
38.501412
83.269254
83.269254
83.269254
38.501412
83.269254
38.501412
38.501412
38.501412
38.501412
38.501412
22.254633
187.08209
114.81849
0
11.143648
0
191.56694
7.3635256
0
0
1.0417053
95.437738
0
0
145.62268
7.3417059
190.30118
88.795574
0
0
279.45683
13.064731
2.7360473
106.59246
0
8.2874092
0
21.375754
24.851748
153.8553
240.52589
59.779039
0
36.407773
81.838297
0
42.88368
69.431143
0
156.62642
78.61068
0
0
5.0497249
25.592007
56.32766
6.5812916
7.6778301
0
130.88667
92.346579
0
163.39145
127.66855
252.89214
0
115.18599
23.436454
194.50766
13.706673
28.187063
6.1058412
110.39574
56.049248
0
94.562199
163.81368
15.136036
0
0
20.066079
)


472
(
218.93877
218.93877
218.93877
218.93877
218.93877
218.93877
218.93877
218.93877
218.93877
166.68949
218.93877
218.93877
218.93877
218.93877
218.93877
218.93877
182.11565
218.93877
83.880914
218.93877
218.93877
218.93877
218.93877
218.93877
175.71371
218.93877
218.93877
120.21405
168.36587
218.93877
218.93877
218.93877
218.93877
218.93877
218.93877
218.93877
218.93877
218.93877
218.93877
218.93877
218.93877
218.90383
218.93877
218.93877
0
218.93739
187.72373
218.93877
164.41888
218.93877
218.93877
218.93877
218.93877
218.93877
218.93877
218.93877
209.91961
218.93877
218.93877
218.93877
181.63647
218.93877
218.93877
52.051296
218.93877
218.93877
218.93877
218.93877
218.93877
218.93877
218.93877
218.93877
218.93877
211.91092
218.93877
218.93877
216.4643
97.195326
218.93877
218.93877
218.93877
218.93877
218.93877
145.15176
208.89504
218.93877
218.93877
173.88903
218.93877
218.93877
218.93877
182.10306
218.93877
218.93877
218.93877
189.82235
218.93877
218.93877
218.93877
132.28903
94.748403
153.07533
218.93877
218.93877
218.93877
218.93877
136.63498
136.63498
136.63498
136.63498
136.63498
136.63498
136.63498
136.63498
136.63498
136.63498
136.63498
136.63498
136.63498
136.63498
136.63498
136.63498
136.63498
136.63498
136.63498
136.63498
136.63498
136.63498
136.63498
136.63498
136.63498
136.63498
136.63498
136.63498
136.63498
136.63498
136.63498
136.63498
136.63498
136.63498
136.63498
136.63498
136.63498
136.63498
136.63498
136.63498
136.63498
136.63498
136.63498
136.63498
136.63498
136.63498
136.63498
136.63498
136.63498
136.63498
136.63498
136.63498
136.63498
136.63498
136.63498
136.63498
136.63498
136.63498
136.63498
136.63498
136.63498
136.63498
136.63498
136.63498
136.63498
136.63498
136.63498
136.63498
136.63498
136.63498
136.63498
136.63498
136.63498
136.63498
136.63498
136.63498
136.63498
136.63498
136.63498
136.63498
136.63498
136.63498
136.63498
136.63498
136.63498
136.63498
136.63498
136.63498
136.63498
136.63498
136.63498
136.63498
136.63498
136.63498
136.63498
136.63498
136.63498
136.63498
136.63498
136.63498
136.63498
136.63498
136.63498
136.63498
136.63498
136.63498
136.63498
136.63498
136.63498
136.63498
136.63498
136.63498
136.63498
136.63498
136.63498
136.63498
136.63498
136.63498
136.63498
136.63498
136.63498
136.63498
136.63498
136.63498
136.63498
136.63498
21.856261
21.856261
21.856261
21.856261
21.856261
21.856261
21.856261
21.856261
21.856261
21.856261
21.856261
21.856261
21.856261
21.856261
21.856261
21.856261
21.856261
21.856261
21.856261
21.856261
21.856261
21.856261
21.856261
21.856261
21.856261
21.856261
21.856261
21.856261
21.856261
21.856261
21.856261
21.856261
21.856261
21.856261
21.856261
21.856261
21.856261
21.856261
21.856261
21.856261
21.856261
21.856261
21.856261
21.856261
21.856261
21.856261
21.856261
21.856261
21.856261
21.856261
21.856261
21.856261
21.856261
21.856261
21.856261
21.856261
21.856261
21.856261
21.856261
21.856261
21.856261
21.856261
21.856261
21.856261
21.856261
21.856261
21.856261
21.856261
21.856261
21.856261
21.856261
21.856261
21.856261
21.856261
21.856261
21.856261
21.856261
21.856261
21.856261
21.856261
21.856261
21.856261
21.856261
21.856261
21.856261
21.856261
21.856261
21.856261
21.856261
21.856261
21.856261
21.856261
21.856261
21.856261
21.856261
21.856261
21.856261
136.63498
136.63498
21.856261
21.856261
21.856261
21.856261
21.856261
21.856261
136.63498
21.856261
21.856261
136.63498
21.856261
21.856261
21.856261
21.856261
21.856261
21.856261
21.856261
21.856261
21.856261
136.63498
21.856261
21.856261
136.63498
136.63498
21.856261
21.856261
21.856261
21.856261
21.856261
21.856261
21.856261
21.856261
21.856261
21.856261
21.856261
21.856261
21.856261
21.856261
21.856261
21.856261
21.856261
21.856261
21.856261
21.856261
21.856261
136.63498
136.63498
21.856261
136.63498
21.856261
136.63498
21.856261
136.63498
21.856261
21.856261
21.856261
136.63498
21.856261
136.63498
21.856261
136.63498
136.63498
136.63498
21.856261
136.63498
21.856261
21.856261
21.856261
21.856261
21.856261
52.11673
219.75014
110.08653
0
23.326719
0
160.85022
9.2931484
0
0
5.5864882
43.163221
0
0
159.8867
0
219.60121
37.526491
0
0
277.72035
0.11698382
5.9930966
149.35867
0
55.724369
0
11.409916
10.284512
137.40264
199.5088
122.20454
11.025501
25.714162
129.10219
0
25.813992
117.07594
0
101.33855
159.00824
0
0
0
87.291279
70.032157
15.129773
5.0750131
0
131.27449
24.784484
0
204.93252
94.036803
244.78707
0
163.80045
8.2612665
218.16202
0
4.2796659
41.876988
142.27456
42.184703
0
94.138879
131.34491
17.502286
0
0
0.11846607
)


472
(
180.4505
180.4505
180.4505
180.4505
180.4505
180.4505
180.4505
180.4505
180.4505
180.4505
180.4505
180.4505
180.4505
180.4505
180.4505
180.4505
180.4505
180.4505
100.67193
180.4505
180.4505
180.4505
180.4505
180.4505
27.821859
180.4505
180.4505
141.17139
121.07923
180.4505
180.4505
180.4505
180.4505
180.4505
180.4505
180.4505
180.4505
180.4505
180.4505
180.4505
180.4505
154.63454
180.4505
180.4505
90.341297
180.4505
0
180.4505
135.51492
180.4505
180.4505
180.4505
180.4505
180.4505
180.4505
180.4505
140.19817
180.4505
180.4505
180.4505
35.222173
180.4505
180.4505
74.643261
180.4505
180.4505
64.278029
59.937952
180.4505
180.4505
180.4505
151.65176
180.4505
180.4505
180.4505
180.4505
179.19184
135.2258
180.4505
180.4505
180.4505
180.42858
180.4505
180.4505
180.4505
180.4505
180.4505
180.4505
180.4505
180.4505
180.4505
127.08488
180.4505
180.4505
180.4505
180.4505
180.4505
180.4505
180.4505
158.14341
83.72182
89.417784
180.4505
180.4505
180.4505
180.4505
178.75054
178.75054
178.75054
178.75054
178.75054
178.75054
178.75054
178.75054
178.75054
178.75054
178.75054
178.75054
178.75054
178.75054
178.75054
178.75054
178.75054
53.186658
178.75054
178.75054
178.75054
178.75054
178.75054
178.75054
178.75054
178.75054
178.75054
178.75054
178.75054
178.75054
178.75054
178.75054
178.75054
178.75054
178.75054
178.75054
178.75054
178.75054
178.75054
178.75054
178.75054
178.75054
178.75054
178.75054
178.75054
178.75054
178.75054
178.75054
178.75054
178.75054
178.75054
178.75054
178.75054
178.75054
178.75054
178.75054
178.75054
178.75054
178.75054
178.75054
178.75054
178.75054
178.75054
178.75054
178.75054
178.75054
178.75054
178.75054
178.75054
178.75054
178.75054
178.75054
178.75054
178.75054
178.75054
178.75054
178.75054
178.75054
178.75054
178.75054
178.75054
178.75054
178.75054
178.75054
178.75054
178.75054
178.75054
178.75054
178.75054
178.75054
178.75054
178.75054
178.75054
178.75054
178.75054
178.75054
178.75054
178.75054
178.75054
178.75054
178.75054
178.75054
178.75054
178.75054
178.75054
178.75054
178.75054
178.75054
178.75054
178.75054
178.75054
178.75054
178.75054
178.75054
178.75054
178.75054
178.75054
178.75054
178.75054
178.75054
178.75054
178.75054
178.75054
178.75054
178.75054
178.75054
0
0
0
0
0
0
0
0
0
0
0
0
0
0
0
0
0
0
0
0
0
0
0
0
0
0
0
0
0
0
0
0
0
0
0
0
0
0
0
0
0
0
0
0
0
0
0
0
0
0
0
0
0
0
0
0
0
0
0
0
0
0
0
0
0
0
0
0
0
0
0
0
0
0
0
0
0
0
0
0
0
0
0
0
0
0
0
0
0
0
0
0
0
0
0
0
0
178.75054
178.75054
0
0
0
0
0
0
178.75054
0
0
178.75054
0
0
0
0
0
0
0
0
0
178.75054
0
0
178.75054
178.75054
0
0
0
0
0
0
0
0
0
0
0
0
0
0
0
0
0
0
0
0
0
178.75054
178.75054
0
178.75054
0
178.75054
0
178.75054
0
0
0
178.75054
0
178.75054
0
178.75054
178.75054
178.75054
0
178.75054
0
0
0
0
0
79.939813
237.86574
93.901097
0
80.479528
0
117.43128
0
0
17.145203
18.642212
12.150896
0
0
169.46685
0
236.11847
5.5918182
0
0
225.60088
13.826185
7.4270193
185.28259
0
125.47018
0
1.6549663
0
83.629563
101.7561
164.45547
23.9378
15.42258
170.556
0
4.8290009
153.11331
0
31.162832
198.40395
0
7.7672338
0
139.50291
72.975109
0
1.5309474
0
121.22199
9.1319159
0
233.84107
57.662582
220.45632
0
199.9261
0
225.91528
0
35.931802
103.28757
169.21017
34.334026
0
82.452704
88.042615
0
0
0
48.35554
)

)


// ************************************************************************* //
