/*--------------------------------*- C++ -*----------------------------------*\
  =========                 |
  \\      /  F ield         | OpenFOAM: The Open Source CFD Toolbox
   \\    /   O peration     | Website:  https://openfoam.org
    \\  /    A nd           | Version:  8
     \\/     M anipulation  |
\*---------------------------------------------------------------------------*/
/*   Windows 32 and 64 bit porting by blueCAPE: http://www.bluecape.com.pt   *\
|  Based on Windows porting (2.0.x v4) by Symscape: http://www.symscape.com   |
\*---------------------------------------------------------------------------*/
FoamFile
{
    version     2.0;
    format      ascii;
    class       polyBoundaryMesh;
    location    "constant/tower/polyMesh";
    object      boundary;
}
// * * * * * * * * * * * * * * * * * * * * * * * * * * * * * * * * * * * * * //

5
(
    buildings_to_air
    {
        type            mappedWall;
        inGroups        List<word> 
2
(
wall
mappedPatch
)
;
        nFaces          1460;
        startFace       34478;
        sampleMode      nearestPatchFace;
        sampleRegion    air;
        samplePatch     tower;
    }
    interior
    {
        type            patch;
        nFaces          1460;
        startFace       35938;
    }
    procBoundary18to16
    {
        type            processor;
        inGroups        List<word> 1(processor);
        nFaces          420;
        startFace       37398;
        matchTolerance  0.0001;
        myProcNo        18;
        neighbProcNo    16;
    }
    procBoundary18to17
    {
        type            processor;
        inGroups        List<word> 1(processor);
        nFaces          284;
        startFace       37818;
        matchTolerance  0.0001;
        myProcNo        18;
        neighbProcNo    17;
    }
    procBoundary18to19
    {
        type            processor;
        inGroups        List<word> 1(processor);
        nFaces          420;
        startFace       38102;
        matchTolerance  0.0001;
        myProcNo        18;
        neighbProcNo    19;
    }
)

// ************************************************************************* //
