/*--------------------------------*- C++ -*----------------------------------*\
  =========                 |
  \\      /  F ield         | OpenFOAM: The Open Source CFD Toolbox
   \\    /   O peration     | Website:  https://openfoam.org
    \\  /    A nd           | Version:  8
     \\/     M anipulation  |
\*---------------------------------------------------------------------------*/
/*   Windows 32 and 64 bit porting by blueCAPE: http://www.bluecape.com.pt   *\
|  Based on Windows porting (2.0.x v4) by Symscape: http://www.symscape.com   |
\*---------------------------------------------------------------------------*/
FoamFile
{
    version     2.0;
    format      ascii;
    class       labelListList;
    location    "constant/vegetation";
    object      globalFaceFaces;
}
// * * * * * * * * * * * * * * * * * * * * * * * * * * * * * * * * * * * * * //


561
(

3017
(
17
18
19
20
21
22
23
167
169
170
173
175
227
232
233
274
275
277
278
280
281
282
283
285
286
288
289
290
291
293
294
295
296
306
308
310
313
314
317
537
539
543
544
693
695
704
706
708
709
710
712
714
715
716
718
719
721
730
731
733
735
736
882
883
984
988
989
1007
1028
1029
1071
1073
2015
2016
2018
2021
2026
2028
2029
2030
2031
2036
2037
2039
2040
2041
2042
2043
2044
2045
2046
2047
2048
2049
2050
2051
2052
2053
2054
2055
2057
2059
2060
2062
2063
2064
2065
2066
2067
2069
2070
2071
2072
2073
2074
2075
2076
2077
2078
2079
2080
2083
2084
2085
2086
2087
2088
2209
2210
2211
2212
2213
2215
2220
2223
2224
2225
2226
2227
2230
2231
2232
2233
2234
2235
2236
2237
2238
2239
2240
2241
2242
2243
2244
2245
2246
2247
2248
2249
2250
2251
2252
2253
2254
2255
2256
2257
2258
2259
2260
2261
2262
2263
2264
2265
2266
2267
2268
2269
2270
2271
2272
2273
2274
2275
2276
2277
2278
2279
2280
2281
2282
2283
2284
2285
2286
2287
2288
2289
2290
2291
2292
2293
2294
2295
2296
2297
2298
2299
2300
2301
2302
2303
2304
2305
2306
2307
2308
2309
2310
2311
2312
2313
2314
2315
2316
2317
2318
2319
2320
2321
2322
2323
2324
2325
2326
2327
2328
2329
2330
2331
2332
2333
2334
2335
2336
2337
2338
2339
2340
2341
2342
2343
2344
2345
2346
2347
2348
2349
2350
2351
2359
2361
2363
2365
2367
2369
2370
2371
2375
2377
2378
2379
2380
2389
2390
2391
2392
2393
2394
2395
2396
2397
2398
2399
2400
2407
2409
2411
2413
2415
2417
2419
2421
2423
2425
2427
2428
2429
2430
2431
2432
2433
2434
2435
2442
2444
2446
2448
2449
2452
2453
2454
2455
2456
2457
2458
2459
2460
2461
2462
2463
2464
2465
2466
2467
2468
2469
2470
2471
2472
2473
2474
2478
2479
2480
2484
2485
2486
2490
2491
2492
2496
2497
2498
2499
2500
2501
2502
2503
2504
2511
2512
2513
2517
2518
2519
2520
2521
2522
2537
2538
2539
2540
2541
2542
2543
2544
2545
2546
2550
2551
2552
2553
2554
2556
2560
2564
2568
2572
2576
2580
2584
2588
2592
2596
2600
2601
2610
2611
2616
2617
2618
2619
2628
2629
2630
2631
2632
2633
2634
2644
2645
2646
2647
2648
2649
2650
2651
2652
2653
2654
2655
2656
2657
2658
2659
2660
2661
2662
2663
2664
2665
2666
2667
2668
2669
2670
2671
2672
2685
2686
2687
2688
2689
2690
2691
2692
2693
2694
2695
2696
2697
2698
2703
2704
2705
2706
2707
2708
2709
2710
2711
2712
2713
2714
2715
2716
2717
2718
2719
2720
2721
2722
2745
2746
2747
2748
2749
2750
2751
2752
2753
2754
2755
2756
2784
2785
2786
2787
2788
2789
2790
2791
2792
2793
2794
2795
2796
2797
2798
2799
2800
2801
2802
2803
2806
2807
2808
2809
2810
2811
2812
2813
2814
2815
2816
2817
2818
2819
2820
2821
2822
2823
2824
2825
2826
2827
2836
2837
2838
2839
2840
2841
2852
2853
2854
2855
2856
2857
2858
2859
2865
2866
2867
2868
2869
2870
2871
2872
2873
2874
2877
2880
2883
2886
2889
2892
2895
2898
2901
2904
2906
2908
2909
2910
2915
2918
2919
2928
2929
2930
2931
2932
2933
2934
2935
2936
2937
2938
2939
2940
2947
2948
2949
2950
2951
2954
2955
2956
2957
2958
2959
2960
2961
2962
2963
2975
2976
2977
2978
2979
2980
2991
2992
2993
2994
2995
2996
2997
2998
2999
3000
3002
3003
3004
3005
3006
3007
3008
3009
3010
3011
3012
3017
3018
3019
3025
3026
3027
3028
3032
3033
3051
3058
3060
3061
3062
3070
3074
3079
3080
3081
3121
3124
3125
3142
3150
3151
3152
3153
3158
3159
3160
3161
3162
3163
3164
3165
3166
3167
3168
3169
3218
3221
3226
3227
3232
3234
3236
3237
3238
3239
3245
3246
3248
3249
3250
3251
3252
3253
3254
3255
3256
3257
3258
3259
3260
3261
3262
3263
3264
3265
3266
3267
3268
3269
3270
3271
3272
3273
3274
3275
3278
3279
3280
3281
3282
3283
3284
3285
3286
3287
3288
3289
3290
3291
3292
3293
3294
3335
3351
3352
3353
3354
3355
3356
3357
3359
3360
3361
3450
4028
4199
4200
4310
4325
4328
4329
4334
4335
4353
4354
4355
4356
4360
4482
4508
4515
4516
4595
4596
4799
5091
5127
5128
5129
5130
5236
5237
5240
5249
5255
5259
5264
5265
5266
5284
5292
5294
5300
5301
5303
5305
5306
5307
5308
5316
5317
5338
5354
5355
5356
5357
5369
5370
5391
5392
5402
5406
5411
5415
5426
5427
5428
5432
5433
5434
5435
5448
5449
5450
5459
5460
5465
5466
5467
5468
5469
5510
5511
5512
5523
5524
5525
5536
5537
5538
5539
5540
5541
5597
5606
5649
5674
5739
5770
5785
5788
5791
5794
5816
5822
5823
5833
5834
5839
5842
5843
5941
5942
5948
5949
5955
5956
5957
5962
5963
5964
5965
5968
5973
5975
5985
5986
5987
5988
5989
5990
5993
6008
6009
6010
6011
6019
6020
6021
6026
6027
6028
6029
6030
6032
6033
6034
6035
6039
6040
6185
6186
6190
6191
6192
6193
6194
6195
6196
6197
6198
6199
6200
6201
6202
6203
6204
6205
6206
6207
6208
6209
6210
6211
6212
6213
6214
6215
6216
6217
6218
6219
6220
6221
6222
6223
6224
6225
6226
6227
6228
6229
6230
6231
6232
6233
6234
6235
6236
6237
6238
6239
6240
6241
6242
6243
6244
6245
6246
6247
6248
6249
6250
6251
6252
6253
6254
6255
6256
6257
6258
6259
6260
6261
6262
6263
6264
6265
6268
6269
6275
6277
6279
6280
6281
6282
6283
6288
6290
6292
6304
6305
6306
6307
6328
6329
6330
6331
6345
6347
6349
6351
6353
6354
6355
6356
6357
6358
6361
6363
6365
6367
6369
6371
6383
6384
6385
6386
6406
6407
6408
6409
6410
6411
6418
6419
6420
6424
6425
6426
6430
6431
6432
6433
6434
6435
6436
6437
6438
6439
6440
6441
6442
6443
6444
6451
6452
6453
6456
6457
6458
6462
6463
6464
6481
6482
6483
6484
6485
6486
6515
6516
6517
6518
6519
6520
6546
6550
6554
6558
6562
6566
6570
6574
6578
6582
6587
6588
6589
6590
6603
6604
6605
6606
6615
6616
6617
6618
6619
6620
6621
6622
6623
6624
6625
6626
6627
6628
6629
6630
6631
6632
6633
6634
6635
6636
6637
6638
6639
6640
6641
6642
6643
6644
6667
6668
6669
6670
6671
6672
6673
6674
6691
6692
6693
6694
6695
6696
6701
6702
6703
6704
6705
6706
6759
6760
6761
6762
6763
6764
6765
6766
6767
6768
6769
6770
6795
6796
6797
6798
6799
6800
6801
6802
6803
6804
6805
6806
6809
6810
6811
6812
6813
6814
6815
6816
6817
6818
6819
6820
6821
6822
6823
6824
6825
6826
6827
6828
6829
6830
6831
6832
6833
6834
6835
6836
6837
6838
6839
6840
6841
6842
6843
6844
6864
6865
6866
6867
6868
6869
6870
6871
6984
6987
6990
6993
6996
6999
7002
7005
7008
7011
7017
7020
7039
7042
7055
7058
7059
7060
7061
7062
7063
7064
7065
7066
7078
7079
7080
7081
7090
7091
7092
7097
7098
7099
7142
7143
7144
7146
7147
7148
7213
7214
7215
7216
7217
7218
7220
7221
7222
7223
7224
7225
7226
7227
7228
7229
7230
7231
7232
7233
7234
7235
7236
7237
7248
7249
7250
7251
7260
7263
7265
7270
7271
7273
7274
7275
7276
7277
7278
7282
7283
7284
7286
7287
7288
7289
7290
7291
7293
7294
7295
7296
7297
7298
7300
7301
7302
7381
7382
7383
7384
7385
7386
7387
7388
7397
7400
7416
7418
7419
7420
7422
7425
7426
7428
7430
7433
7434
7436
7438
7439
7442
7445
7448
7449
7450
7452
7453
7454
7457
7458
7459
7460
7461
7462
7485
7486
7491
7492
7493
7500
7501
7502
7506
7507
7511
7512
7514
7518
7522
7526
7531
7535
7538
7542
7546
7550
7553
7554
7555
7556
7557
7559
7561
7576
7577
7578
7579
7580
7581
7582
7583
7584
7585
7586
7587
7588
7589
7590
7591
7592
7593
7594
7595
7596
7597
7598
7599
7600
7601
7602
7603
7607
7611
7617
7643
7644
7645
7646
7647
7648
7649
7650
7651
7652
7653
7654
7655
7656
7657
7658
7686
7687
7688
7689
7690
7691
7692
7693
7694
7695
7696
7699
7702
7705
7708
7711
7714
7717
7720
7723
7726
7728
7729
7730
7731
7735
7736
7737
7738
7739
7740
7741
7742
7743
7744
7745
7746
7747
7748
7751
7769
7770
7771
7772
7773
7774
7775
7776
7790
7791
7792
7793
7794
7795
7799
7800
7805
7806
7807
7808
7809
7810
7811
7812
7813
7814
7815
7816
7817
7818
7819
7820
7821
7822
7823
7824
7825
7826
7827
7828
7829
7830
7831
7832
7833
7834
7835
7836
7837
7838
7839
7840
7841
7842
7843
7844
7845
7846
7847
7848
7849
7850
7851
7852
7854
7855
7856
7857
7858
7859
7860
7861
7862
7863
7864
7865
7866
7867
7868
7869
7870
7871
7872
7873
7874
7875
7876
7879
7880
7881
7882
7883
7884
7885
7886
7887
7888
7890
7891
7893
7894
7895
7896
7897
7898
7899
7900
7901
7902
7903
7904
7906
7907
7908
7909
7910
7911
7912
7914
7915
7916
7917
7918
7919
7920
7921
7922
7924
7926
7927
7928
7929
7930
7931
7932
7933
7936
7937
7938
7939
7940
7941
7942
7943
7944
7945
7946
7947
7948
7949
7950
7951
7953
7956
7957
7960
7961
7962
7963
7964
7965
7967
7969
7970
7972
7973
7974
7975
7977
7978
7979
7980
7981
7982
7983
7984
7985
7987
7988
7989
7990
7992
7993
7994
7995
7996
7997
7998
8001
8002
8003
8007
8010
8013
8016
8020
8024
8028
8032
8036
8040
8042
8043
8044
8045
8046
8047
8048
8049
8050
8051
8052
8053
8054
8055
8056
8057
8058
8059
8060
8061
8062
8063
8064
8065
8066
8067
8068
8069
8070
8071
8072
8073
8074
8075
8076
8077
8078
8079
8080
8081
8082
8083
8084
8085
8086
8088
8089
8090
8091
8092
8093
8094
8095
8096
8097
8098
8099
8100
8101
8102
8103
8104
8105
8106
8107
8108
8109
8110
8111
8112
8113
8114
8115
8116
8117
8118
8119
8120
8121
8122
8123
8124
8125
8126
8127
8128
8129
8130
8131
8132
8133
8134
8135
8136
8137
8138
8139
8140
8141
8142
8143
8144
8145
8146
8158
8159
8160
8161
8162
8163
8166
8167
8168
8169
8170
8172
8173
8174
8175
8176
8177
8178
8179
8180
8181
8182
8184
8187
8190
8193
8196
8199
8202
8204
8206
8207
8209
8210
8211
8212
8213
8214
8215
8216
8217
8218
8219
8220
8221
8222
8223
8224
8225
8226
8227
8228
8229
8230
8231
8232
8233
8234
8235
8236
8237
8238
8239
8240
8241
8242
8243
8244
8245
8246
8247
8248
8249
8250
8251
8252
8253
8254
8255
8256
8257
8258
8259
8260
8261
8262
8263
8269
8270
8271
8273
8274
8275
8276
8277
8278
8279
8280
8282
8283
8284
8286
8319
8320
8321
8386
8388
8390
8392
8395
8441
8442
8447
8448
8449
8450
8451
8454
8455
8456
8457
8461
8465
8469
8497
8498
8499
8500
8501
8502
8503
8504
8505
8506
8507
8508
8511
8512
8513
8514
8517
8518
8519
8520
8534
8535
8536
8537
8538
8547
8548
8601
8602
8603
8604
8613
8614
8615
8616
8617
8618
8619
8620
8785
8786
8787
8788
8795
8796
8797
8798
8805
8806
8807
8808
8809
8810
8811
8812
8822
8823
8824
8825
8832
8833
8834
8835
8836
8837
8838
8839
8841
8843
8848
8849
8850
8851
8852
8853
8854
8855
8856
8857
8858
8859
8860
8861
8862
8863
8864
8865
8867
8868
8869
8870
8871
8872
8873
8874
8875
8876
8877
8880
8881
8882
8883
8884
8885
8886
8887
8888
8889
8890
8891
8892
8893
8894
8895
8949
8999
9000
9002
9003
9007
9008
9010
9011
9013
9014
9016
9017
9019
9020
9024
9025
9027
9028
9030
9031
9033
9034
9067
9068
9069
9113
9114
9115
9116
9117
9118
9119
9120
9121
9122
9123
9124
9125
9126
9127
9128
9129
9130
9131
9132
9133
9134
9135
9136
9137
9138
9139
9140
9141
9142
9143
9144
9145
9146
9147
9148
9149
9150
9151
9152
9153
9154
9155
9156
9157
9158
9159
9160
9243
9244
9245
9246
9247
9511
9513
9516
9518
9880
9881
9882
9883
10132
10142
10146
10153
10154
10160
10161
10162
10163
10183
10189
10201
10202
10203
10204
10252
10257
10258
10315
10330
10331
10341
10342
10343
10344
10348
10349
10350
10351
10355
10356
10358
10359
10360
10366
10367
10369
10370
10371
10372
10373
10374
10375
10377
10378
10380
10381
10382
10383
10384
10385
10387
10388
10391
10392
10393
10394
10395
10400
10402
10403
10404
10405
10406
10407
10408
10409
10410
10411
10416
10417
10418
10419
10420
10421
10432
10450
10451
10452
10453
10454
10455
10456
10457
10460
10461
10462
10463
10464
10465
10501
10504
10530
10531
10532
10533
10534
10535
10536
10537
10546
10547
10548
10549
10617
10692
10693
10694
10695
10752
10753
10754
10755
10756
10757
10758
10759
10760
10761
10762
10763
10764
10765
10766
10768
10769
10770
10771
10772
10773
10774
10775
10776
10777
10778
10780
10781
10782
10783
10784
10785
10786
10787
10788
10789
10790
10791
10792
10793
10794
10795
10796
10797
10798
10799
10800
10801
10802
10803
10804
10805
10806
10807
10808
10809
10810
10811
10812
10813
10814
10815
10816
10817
10818
10819
10820
10821
10822
10823
10824
10825
10826
10827
10828
10829
10830
10831
10832
10833
10834
10835
10836
10837
10838
10839
10840
10841
10842
10843
10844
10845
10846
10847
10848
10849
10850
10851
10852
10853
10854
10855
10856
10857
10858
10859
10860
10861
10862
10863
10864
10865
10866
10867
10868
10869
10870
10871
10872
10873
10874
10875
10876
10877
10878
10879
10880
10881
10882
10883
10884
10885
10886
10887
10888
10889
10890
10891
10892
10893
10894
10895
10896
10897
10898
10899
10900
10901
10902
10903
10904
10905
10906
10907
10908
10909
10910
10911
10912
10913
10914
10915
10916
10917
10918
10919
10920
10921
10922
10923
10924
10925
10926
10927
10928
10929
10930
10931
10932
10933
10934
10935
10936
10937
10938
10939
10940
10941
10942
10943
10944
10945
10946
10947
10948
10949
10950
10951
10952
10953
10954
10955
10956
10957
10958
10959
10960
10961
10962
10963
10964
10965
10966
10967
10968
10969
10970
10971
10972
10973
10974
10975
10976
10977
10978
10979
10980
10981
10982
10983
10984
10985
10986
10987
10988
10989
10990
10991
10992
10993
10994
10995
10996
10997
10998
10999
11000
11001
11002
11003
11004
11005
11006
11007
11008
11009
11010
11011
11012
11013
11014
11015
11016
11017
11018
11019
11020
11021
11022
11023
11024
11025
11026
11027
11028
11029
11030
11031
11032
11033
11034
11035
11036
11037
11038
11039
11040
11041
11042
11043
11044
11045
11046
11047
11048
11049
11050
11051
11052
11053
11054
11055
11056
11057
11058
11059
11060
11061
11062
11063
11064
11065
11066
11067
11068
11069
11070
11071
11072
11073
11074
11075
11076
11077
11078
11079
11080
11081
11082
11083
11084
11085
11086
11087
11088
11089
11090
11091
11092
11093
11094
11095
11096
11097
11098
11099
11100
11101
11102
11103
11104
11105
11106
11107
11108
11109
11110
11111
11112
11113
11114
11115
11116
11117
11118
11119
11120
11121
11122
11123
11124
11125
11126
11127
11128
11129
11130
11131
11132
11133
11134
11135
11136
11137
11138
11139
11140
11141
11142
11143
11144
11145
11146
11147
11148
11149
11150
11151
11152
11153
11154
11155
11156
11157
11158
11159
11160
11161
11162
11163
11164
11165
11166
11167
11168
11169
11170
11171
11172
11173
11174
11175
11176
11177
11178
11179
11180
11181
11182
11183
11184
11185
11186
11187
11188
11189
11190
11191
11192
11193
11194
11195
11196
11197
11198
11199
11200
11201
11202
11203
11204
11205
11206
11207
11208
11209
11210
11211
11212
11213
11214
11215
11216
11217
11218
11219
11220
11221
11222
11223
11224
11225
11226
11227
11228
11229
11230
11231
11232
11233
11234
11235
11236
11237
11238
11239
11240
11241
11242
11243
11244
11245
11246
11247
11248
11249
11250
11251
11252
11253
11254
11255
11256
11257
11258
11259
11260
11261
11262
11263
11264
11265
11266
11267
11268
11269
11270
11271
11272
11273
11274
11275
11276
11277
11278
11279
11280
11281
11282
11283
11284
11285
11286
11287
11288
11289
11290
11291
11292
11293
11294
11295
11296
11297
11298
11299
11300
11301
11302
11303
11304
11305
11306
11309
11312
11313
11314
11315
11317
11318
11319
11320
11321
11322
11323
11324
11325
11326
11327
11330
11331
11333
11334
11336
11337
11338
11340
11341
11345
11346
11347
11348
11349
11350
11351
11352
11353
11354
11355
11356
11357
11358
11359
11361
11362
11363
11365
11370
11371
11372
11373
11378
11379
11380
11381
11382
11383
11384
11385
11386
11387
11388
11389
11390
11391
11408
11409
11419
11420
11428
11429
11430
11431
11432
11433
11434
11435
11436
11437
11454
11455
11456
11457
11459
11461
11469
11471
11474
11476
11479
11480
11481
11482
11502
11503
11504
11505
11506
11507
11508
11509
11510
11511
11512
11519
11521
11523
11525
11527
11529
11532
11534
11536
11538
11539
11556
11557
11558
11559
11560
11561
11562
11563
11564
11565
11566
11568
11571
11574
11577
11578
11579
11583
11584
11585
11589
11590
11594
11595
11596
11601
11606
11607
11608
11609
11610
11611
11632
11635
11640
11645
11647
11648
11649
11650
11651
11652
11656
11657
11658
11660
11661
11664
11668
11672
11676
11680
11684
11688
11712
11713
11723
11724
11732
11733
11734
11735
11760
11761
11762
11763
11764
11765
11780
11781
11782
11783
11784
11785
11786
11787
11788
11789
11790
11791
11797
11798
11799
11800
11801
11802
11812
11813
11814
11815
11816
11817
11823
11824
11825
11826
11827
11828
11849
11850
11851
11852
11853
11854
11855
11856
11857
11858
11859
11860
11905
11906
11907
11908
11909
11910
11911
11912
11913
11914
11915
11916
11918
11919
11920
11921
11922
11923
11926
11927
11928
11929
11930
11931
11940
11941
11942
11943
11944
11945
11946
11947
12098
12133
12136
12139
12142
12145
12148
12151
12169
12182
12188
12189
12226
12227
12228
12229
12230
12231
12239
12240
12241
12242
12255
12256
12257
12286
12287
12288
12309
12310
12311
12312
12313
12314
12343
12344
12345
12346
12347
12348
12351
12352
12353
12355
12356
12357
12362
12363
12364
12365
)


1488
(
1029
1071
1073
2014
2087
2088
2209
2211
2213
2220
2226
2227
2228
2229
2267
2268
2269
2270
2272
2273
2274
2275
2276
2277
2278
2279
2280
2281
2282
2283
2284
2285
2286
2287
2288
2289
2290
2291
2292
2293
2294
2295
2296
2297
2298
2299
2300
2301
2302
2303
2304
2305
2306
2307
2308
2309
2310
2311
2312
2313
2314
2315
2319
2320
2321
2322
2323
2324
2325
2326
2327
2328
2329
2330
2331
2332
2333
2334
2335
2336
2337
2338
2339
2340
2341
2342
2343
2344
2391
2392
2393
2394
2395
2396
2397
2398
2399
2400
2409
2411
2413
2415
2417
2419
2421
2423
2425
2429
2442
2444
2446
2458
2460
2461
2466
2467
2469
2470
2539
2550
2551
2552
2553
2554
2556
2560
2564
2568
2572
2576
2580
2584
2588
2592
2596
2628
2629
2630
2631
2632
2633
2634
2644
2645
2646
2647
2648
2649
2650
2651
2652
2653
2654
2655
2656
2657
2685
2687
2688
2689
2690
2691
2692
2713
2714
2715
2716
2784
2786
2794
2796
2797
2806
2873
2874
2877
2880
2883
2886
2889
2892
2895
2898
2901
2904
2906
2928
2929
2930
2931
2932
2933
2934
2947
2948
2949
2959
2960
5131
5132
5133
5134
5135
5136
5137
5138
5139
5140
5141
5142
5143
5144
5145
5146
5147
5148
5149
5150
5151
5153
5172
5193
5208
5209
5218
5219
5230
5231
5232
5233
5234
5235
5238
5241
5257
5258
5267
5268
5269
5270
5271
5275
5311
5312
5313
5314
5315
5361
5371
5372
5373
5374
5375
5376
5425
5436
5437
5438
5477
5478
5479
5480
5508
5612
5681
5687
5688
5881
5882
5940
6175
6185
6201
6202
6205
6206
6207
6208
6209
6210
6211
6212
6213
6214
6215
6216
6217
6218
6219
6220
6221
6222
6223
6224
6225
6226
6227
6228
6229
6230
6231
6232
6233
6234
6235
6236
6237
6238
6239
6240
6241
6242
6243
6244
6245
6246
6247
6248
6249
6250
6251
6252
6253
6254
6255
6256
6257
6258
6259
6260
6261
6262
6263
6264
6265
6268
6269
6275
6277
6279
6280
6281
6282
6283
6288
6290
6292
6304
6305
6306
6307
6328
6329
6330
6331
6345
6347
6349
6351
6353
6354
6355
6356
6357
6358
6361
6363
6365
6367
6369
6371
6383
6384
6385
6386
6406
6407
6408
6409
6410
6411
6418
6419
6420
6424
6425
6426
6430
6431
6432
6433
6434
6435
6436
6437
6438
6439
6440
6441
6442
6443
6444
6451
6452
6453
6456
6457
6458
6462
6463
6464
6481
6482
6483
6484
6485
6486
6515
6516
6517
6518
6519
6520
6546
6550
6554
6558
6562
6566
6570
6574
6578
6582
6587
6588
6589
6590
6603
6604
6605
6606
6615
6616
6617
6618
6619
6620
6621
6622
6623
6624
6625
6626
6627
6628
6629
6630
6631
6632
6633
6634
6635
6636
6637
6638
6639
6640
6641
6642
6643
6644
6667
6668
6669
6670
6671
6672
6673
6674
6691
6692
6693
6694
6695
6696
6701
6702
6703
6704
6705
6706
6759
6760
6761
6762
6763
6764
6765
6766
6767
6768
6769
6770
6795
6796
6797
6798
6799
6800
6801
6802
6803
6804
6805
6806
6809
6810
6811
6812
6813
6814
6815
6816
6817
6818
6819
6820
6821
6822
6823
6824
6825
6826
6827
6828
6829
6830
6831
6832
6833
6834
6835
6836
6837
6838
6839
6840
6841
6842
6843
6844
6864
6865
6866
6867
6868
6869
6870
6871
6984
6987
6990
6993
6996
6999
7002
7005
7008
7011
7017
7020
7039
7042
7055
7058
7059
7060
7061
7062
7063
7064
7065
7066
7078
7079
7080
7081
7090
7091
7092
7097
7098
7099
7142
7143
7144
7146
7147
7148
7213
7214
7215
7216
7217
7218
7220
7221
7222
7223
7224
7225
7226
7227
7228
7229
7230
7231
7232
7233
7234
7235
7236
7237
7248
7249
7250
7251
7303
7304
7305
7306
7307
7308
7309
7310
7311
7312
7313
7314
7315
7317
7318
7319
7320
7321
7323
7324
7325
7326
7327
7329
7332
7333
7334
7335
7336
7337
7338
7339
7341
7344
7345
7346
7347
7348
7349
7350
7351
7352
7353
7354
7356
7357
7359
7360
7364
7365
7366
7367
7368
7369
7373
7374
7375
7376
7377
7378
7379
7380
7382
7384
7387
7388
7390
7391
7392
7404
7405
7406
7407
7411
7412
7413
7414
7428
7436
7438
7439
7441
7446
7447
7457
7458
7460
7461
7462
7468
7469
7470
7471
7472
7473
7474
7475
7476
7477
7478
7483
7506
7507
7509
7510
7546
7550
7553
7554
7557
7558
7561
7562
7565
7566
7567
7568
7571
7572
7573
7574
7575
7589
7597
7598
7599
7600
7601
7602
7608
7609
7619
7620
7651
7652
7655
7656
7657
7658
7664
7665
7666
7667
7668
7669
7670
7671
7672
7673
7674
7675
7676
7677
7682
7683
7695
7696
7697
7728
7729
7730
7732
7734
7745
7746
7747
7752
7757
7758
7773
7775
7776
7779
7780
7781
7782
7783
7784
7785
7794
7801
7804
7855
7856
7857
7858
7859
7860
7861
7862
7863
7864
7865
7866
7867
7868
7869
7870
7871
7872
7874
7875
7876
7877
7878
7879
7880
7882
7886
7887
7888
7889
7890
7892
7894
7895
7896
7897
7898
7899
7900
7901
7902
7904
7905
7906
7910
7911
7912
7913
7917
7918
7933
7934
7935
7937
7938
7939
7940
7941
7942
7943
7944
7945
7946
7947
7948
7949
7950
7951
7953
7956
7957
7960
7961
7962
7963
7964
7965
7967
7969
7970
7977
7981
7983
7984
7985
7986
7998
8007
8010
8013
8016
8020
8024
8028
8032
8036
8040
8042
8043
8044
8045
8046
8047
8048
8049
8050
8051
8052
8053
8054
8055
8056
8057
8058
8059
8060
8061
8062
8063
8064
8065
8066
8067
8068
8069
8070
8071
8072
8073
8074
8075
8076
8077
8078
8079
8080
8085
8086
8087
8090
8091
8092
8093
8094
8095
8096
8097
8098
8099
8100
8101
8102
8103
8104
8105
8106
8107
8108
8109
8110
8111
8112
8113
8114
8115
8116
8117
8118
8119
8120
8121
8122
8135
8137
8138
8143
8145
8146
8162
8164
8180
8182
8184
8187
8190
8193
8196
8199
8202
8204
8206
8207
8209
8210
8211
8212
8213
8214
8215
8216
8217
8218
8219
8220
8221
8222
8223
8224
8225
8226
8227
8228
8229
8230
8231
8232
8233
8234
8235
8237
8238
8239
8240
8241
8242
8243
8244
8245
8246
8247
8248
8249
8250
8251
8252
8258
8259
8271
8272
8280
8282
8283
8284
10189
10743
10748
10751
10802
10803
10804
10805
10806
10807
10818
10819
10820
10821
10822
10823
10824
10825
10826
10827
10828
10829
10868
10869
10870
10871
10872
10873
10876
10878
10879
10881
10882
10885
10886
10887
10889
10890
10891
10892
10893
10894
10895
10896
10897
10898
10899
10900
10901
10902
10903
10904
10905
10906
10908
10909
10910
10911
10912
10913
10914
10915
10916
10919
10920
10921
10922
10923
10981
10982
10983
10984
10991
10992
10995
10996
10997
10998
10999
11002
11003
11004
11005
11008
11009
11010
11011
11014
11015
11016
11017
11018
11019
11022
11023
11024
11025
11026
11027
11028
11029
11030
11059
11060
11061
11062
11063
11064
11065
11066
11067
11068
11069
11070
11071
11072
11073
11074
11075
11076
11077
11078
11079
11080
11081
11082
11188
11189
11190
11191
11195
11196
11198
11199
11200
11201
11212
11213
11216
11221
11222
11223
11292
11293
11294
11295
11296
11297
11298
11299
11300
11301
11302
11303
11305
11309
11312
11313
11315
11316
11346
11348
11350
11351
11352
11353
11354
11355
11356
11357
11358
11359
11361
11362
11363
11365
11370
11371
11372
11373
11378
11379
11380
11381
11382
11383
11384
11385
11386
11387
11388
11389
11390
11391
11408
11409
11419
11420
11428
11429
11430
11431
11432
11433
11434
11435
11436
11437
11454
11455
11456
11457
11459
11461
11469
11471
11474
11476
11479
11480
11481
11482
11502
11503
11504
11505
11506
11507
11508
11509
11510
11511
11512
11519
11521
11523
11525
11527
11529
11532
11534
11536
11538
11539
11556
11557
11558
11559
11560
11561
11562
11563
11564
11565
11566
11568
11571
11574
11577
11578
11579
11583
11584
11585
11589
11590
11594
11595
11596
11601
11606
11607
11608
11609
11610
11611
11632
11635
11640
11645
11647
11648
11649
11650
11651
11652
11656
11657
11658
11660
11661
11664
11668
11672
11676
11680
11684
11688
11712
11713
11723
11724
11732
11733
11734
11735
11760
11761
11762
11763
11764
11765
11780
11781
11782
11783
11784
11785
11786
11787
11788
11789
11790
11791
11797
11798
11799
11800
11801
11802
11812
11813
11814
11815
11816
11817
11823
11824
11825
11826
11827
11828
11849
11850
11851
11852
11853
11854
11855
11856
11857
11858
11859
11860
11905
11906
11907
11908
11909
11910
11911
11912
11913
11914
11915
11916
11918
11919
11920
11921
11922
11923
11926
11927
11928
11929
11930
11931
11940
11941
11942
11943
11944
11945
11946
11947
12098
12133
12136
12139
12142
12145
12148
12151
12169
12182
12188
12189
12226
12227
12228
12229
12230
12231
12239
12240
12241
12242
12255
12256
12257
12286
12287
12288
12309
12310
12311
12312
12313
12314
12343
12344
12345
12346
12347
12348
12351
12352
12353
12355
12356
12357
12362
12363
12364
12365
)


1132
(
2014
2087
2226
2228
2229
5127
5128
5130
5131
5132
5133
5134
5135
5136
5137
5138
5139
5140
5141
5142
5143
5144
5145
5146
5147
5148
5149
5150
5151
5152
5153
5154
5172
5193
5208
5209
5218
5219
5230
5231
5232
5233
5234
5235
5236
5237
5238
5241
5257
5258
5260
5265
5266
5267
5268
5269
5270
5271
5272
5273
5274
5275
5292
5294
5305
5306
5307
5308
5311
5312
5313
5314
5315
5319
5320
5322
5324
5357
5361
5362
5363
5369
5370
5371
5372
5373
5374
5375
5376
5377
5378
5379
5380
5381
5382
5391
5392
5402
5406
5425
5429
5435
5436
5437
5438
5439
5459
5460
5468
5477
5478
5479
5480
5481
5482
5508
5509
5514
5515
5597
5606
5612
5621
5649
5659
5674
5681
5687
5688
5692
5698
5699
5739
5770
5785
5816
5817
5822
5823
5839
5881
5882
5940
6040
6041
6042
6043
6044
6045
6046
6053
6054
6055
6056
6057
6058
6059
6060
6061
6062
6063
6064
6065
6066
6067
6068
6069
6070
6071
6072
6073
6074
6075
6076
6077
6078
6079
6080
6081
6082
6083
6084
6085
6086
6087
6088
6089
6091
6097
6098
6099
6100
6101
6103
6105
6106
6107
6108
6113
6114
6115
6116
6123
6124
6126
6127
6128
6129
6134
6135
6136
6137
6143
6144
6145
6146
6147
6148
6149
6150
6151
6152
6153
6154
6155
6156
6157
6158
6159
6160
6161
6162
6163
6164
6165
6166
6167
6168
6169
6170
6171
6172
6173
6174
6175
6185
6186
6202
7300
7301
7302
7303
7304
7305
7306
7307
7308
7309
7310
7311
7312
7313
7314
7315
7317
7318
7319
7320
7321
7323
7324
7325
7326
7327
7329
7330
7331
7332
7333
7334
7335
7336
7337
7338
7339
7341
7344
7345
7346
7347
7348
7349
7350
7351
7352
7353
7356
7357
7359
7360
7364
7365
7366
7367
7368
7369
7373
7374
7375
7376
7377
7378
7379
7380
7382
7384
7387
7388
7390
7391
7400
7404
7405
7406
7407
7410
7411
7412
7413
7414
7425
7428
7430
7433
7434
7436
7438
7439
7441
7446
7457
7458
7459
7460
7461
7462
7468
7469
7470
7471
7472
7473
7474
7475
7476
7477
7478
7483
7492
7500
7501
7502
7506
7507
7509
7522
7526
7531
7535
7538
7542
7546
7550
7553
7554
7557
7558
7561
7562
7565
7566
7567
7568
7571
7572
7573
7574
7585
7586
7588
7589
7590
7591
7592
7593
7594
7595
7596
7597
7598
7599
7600
7601
7602
7607
7608
7609
7610
7617
7619
7620
7651
7652
7653
7654
7655
7656
7657
7658
7664
7665
7666
7667
7668
7669
7670
7671
7672
7673
7674
7675
7676
7677
7688
7691
7692
7693
7694
7695
7696
7697
7708
7711
7714
7717
7720
7723
7726
7728
7729
7730
7732
7734
7739
7740
7741
7742
7743
7744
7745
7746
7747
7751
7752
7753
7757
7758
7773
7774
7775
7776
7779
7780
7781
7782
7783
7784
7785
7792
7793
7794
7795
7799
7800
7801
7804
7856
7857
7858
7859
7860
7861
7862
7863
7864
7865
7866
7869
7871
7872
7874
7876
7877
7878
7879
7880
7882
7883
7884
7886
7889
7890
7891
7892
7893
7898
7899
7901
7902
7903
7905
7906
7907
7908
7909
7913
7914
7915
7916
7923
7925
7928
7929
7931
7934
7935
7936
7956
7957
7960
7972
7974
7975
7976
7986
7989
7990
7991
7992
8002
8007
8010
8013
8016
8020
8078
8080
8084
8087
8088
8089
8106
8107
8108
8109
8110
8111
8112
8124
8128
8129
8130
8164
8165
8169
8170
8171
8172
8173
8176
8177
8178
8180
8181
8182
8184
8187
8190
8245
8246
8247
8272
8275
8276
8278
8279
8280
8283
8284
8321
8395
8469
8547
8548
8856
8860
8861
8862
8863
8864
8865
8867
8868
8869
8870
8871
8872
8873
8874
8875
8876
8877
8880
8881
8882
8883
8884
8885
8886
8887
8888
8889
8890
8891
8892
8893
8894
8895
9016
9017
9019
9024
9025
9027
9028
9030
9031
9033
9034
9133
9145
9146
9147
9148
9149
9150
9151
9152
9153
9154
9155
9156
9157
9158
9159
9160
9413
9414
9415
9416
9417
9418
9437
9449
9450
9451
9457
9458
9459
9460
9470
9511
9512
9513
9514
9515
9516
9517
9518
9519
9520
9521
9522
9523
9524
9536
9539
9540
9557
9723
9724
9725
9726
9727
9731
9862
9863
9864
9865
9880
9881
9882
9883
9884
9885
9886
9887
9895
9897
10046
10047
10051
10190
10191
10192
10193
10196
10197
10198
10199
10200
10201
10202
10203
10204
10205
10206
10211
10212
10213
10214
10216
10250
10251
10252
10253
10254
10255
10256
10257
10258
10259
10278
10279
10280
10281
10282
10283
10284
10285
10286
10287
10288
10289
10290
10291
10292
10293
10294
10295
10296
10297
10298
10299
10300
10301
10302
10303
10304
10305
10306
10307
10308
10309
10311
10313
10314
10316
10317
10318
10319
10320
10321
10323
10324
10325
10326
10327
10328
10329
10330
10331
10332
10333
10334
10335
10336
10338
10339
10341
10342
10343
10344
10345
10346
10347
10348
10349
10350
10351
10352
10353
10354
10355
10356
10357
10358
10359
10360
10361
10362
10363
10364
10365
10366
10367
10368
10369
10370
10371
10372
10373
10374
10375
10376
10377
10378
10379
10380
10381
10382
10383
10384
10385
10386
10387
10388
10389
10391
10392
10393
10394
10396
10398
10400
10401
10402
10403
10404
10405
10406
10407
10408
10409
10410
10411
10412
10413
10414
10415
10416
10418
10419
10420
10421
10422
10423
10424
10425
10427
10433
10434
10435
10436
10437
10438
10439
10440
10441
10442
10443
10444
10445
10446
10447
10448
10449
10450
10451
10452
10453
10454
10455
10456
10457
10458
10459
10460
10461
10462
10463
10464
10465
10481
10482
10483
10484
10485
10501
10502
10503
10504
10505
10528
10529
10530
10531
10532
10533
10534
10535
10536
10537
10538
10539
10540
10541
10542
10543
10544
10545
10546
10547
10548
10549
10617
10649
10674
10675
10676
10677
10678
10679
10680
10681
10682
10683
10684
10685
10686
10687
10688
10689
10690
10691
10692
10693
10694
10695
10743
10748
10751
10808
10809
10810
10811
10812
10813
10814
10815
10816
10817