/*--------------------------------*- C++ -*----------------------------------*\
  =========                 |
  \\      /  F ield         | OpenFOAM: The Open Source CFD Toolbox
   \\    /   O peration     | Website:  https://openfoam.org
    \\  /    A nd           | Version:  8
     \\/     M anipulation  |
\*---------------------------------------------------------------------------*/
/*   Windows 32 and 64 bit porting by blueCAPE: http://www.bluecape.com.pt   *\
|  Based on Windows porting (2.0.x v4) by Symscape: http://www.symscape.com   |
\*---------------------------------------------------------------------------*/
FoamFile
{
    version     2.0;
    format      ascii;
    class       scalarListList;
    location    "constant/vegetation";
    object      solarLoadFineFaces;
}
// * * * * * * * * * * * * * * * * * * * * * * * * * * * * * * * * * * * * * //


5
(

1127
(
0
717.08284
124.57392
717.08284
264.17487
717.08284
0
671.44573
0
717.08284
0
0
264.17487
717.08284
124.57392
0
0
0
0
717.08284
717.08284
717.08284
134.79021
671.44573
624.58584
717.08284
717.08284
624.58584
717.08284
717.08284
0
0
0
0
0
0
88.674093
221.13562
323.339
717.08284
0
320.74791
717.08284
717.08284
717.08284
0
0
0
717.08284
717.08284
717.08284
717.08284
717.08284
134.79021
717.08284
717.08284
148.26863
117.22852
88.674093
717.08284
221.13562
0
0
0
0
717.08284
717.08284
124.57392
116.47362
198.65061
198.65061
717.08284
717.08284
717.08284
717.08284
717.08284
717.08284
717.08284
134.79021
717.08284
717.08284
717.08284
121.88941
85.018151
0
315.91618
671.44573
717.08284
717.08284
717.08284
717.08284
717.08284
717.08284
106.22876
116.47362
88.674093
221.13562
116.47362
106.22876
198.65061
116.47362
298.40179
85.018151
121.88941
134.79021
717.08284
117.81486
117.81486
124.57392
717.08284
717.08284
717.08284
117.81486
117.81486
85.018151
717.08284
717.08284
717.08284
717.08284
717.08284
717.08284
0
717.08284
717.08284
0
717.08284
0
710.73683
0
0
0
0
717.08284
717.08284
315.03654
0
0
0
0
0
0
0
717.08284
717.08284
717.08284
148.26863
148.26863
134.79021
717.08284
717.08284
717.08284
717.08284
0
0
0
0
0
0
0
0
0
0
0
717.08284
717.08284
0
717.08284
717.08284
148.26863
717.08284
717.08284
198.65061
717.08284
717.08284
717.08284
717.08284
717.08284
717.08284
717.08284
717.08284
717.08284
405.36331
607.3753
717.08284
106.22876
117.22852
117.22852
88.674093
117.22852
106.22876
298.40179
717.08284
717.08284
717.08284
717.08284
221.13562
717.08284
717.08284
717.08284
717.08284
717.08284
717.08284
717.08284
717.08284
717.08284
134.79021
717.08284
320.74791
121.88941
121.88941
315.03654
121.88941
121.88941
121.88941
315.91618
717.08284
717.08284
717.08284
717.08284
717.08284
85.018151
134.79021
134.79021
717.08284
717.08284
717.08284
717.08284
0
0
0
717.08284
717.08284
717.08284
717.08284
717.08284
717.08284
717.08284
717.08284
717.08284
717.08284
717.08284
717.08284
717.08284
0
0
0
0
0
0
0
0
0
0
0
0
0
0
0
0
0
0
0
0
0
0
0
0
0
0
0
0
0
0
0
0
0
0
0
0
0
0
0
0
0
0
0
0
0
0
0
0
0
0
0
0
0
0
0
0
0
0
0
0
0
0
0
0
0
0
0
0
0
0
0
0
0
0
0
0
0
0
0
0
0
0
0
0
0
0
0
0
0
0
0
0
0
0
0
0
0
0
0
0
0
0
0
0
0
0
0
0
0
0
0
0
0
0
0
0
0
0
0
0
0
0
0
0
0
0
0
0
0
0
0
0
0
0
0
0
0
0
0
0
0
0
0
0
0
0
0
0
0
0
0
0
0
0
0
0
0
0
0
0
0
0
0
0
0
0
0
0
0
0
0
0
0
0
0
0
0
0
0
0
0
0
0
0
0
0
0
0
0
0
0
0
0
0
0
0
0
0
0
0
0
0
0
0
0
0
0
0
0
0
0
0
0
0
0
0
0
0
0
0
0
0
0
0
0
0
0
0
0
0
0
0
0
0
0
0
0
0
0
0
0
0
0
0
0
0
0
0
0
0
0
0
0
0
0
0
0
0
0
0
0
0
0
0
0
0
0
0
0
0
0
0
0
0
0
0
0
0
0
0
0
0
0
0
0
0
0
0
0
0
0
0
0
0
0
0
0
0
0
0
0
0
0
0
0
0
0
0
0
0
0
0
0
0
0
0
0
0
0
0
0
0
0
0
0
0
0
0
0
0
0
0
0
0
0
0
0
0
0
0
0
0
0
0
0
0
0
0
0
0
0
0
0
0
0
0
0
0
0
0
0
0
0
0
0
0
0
0
0
0
0
0
0
0
0
0
0
0
0
0
0
0
0
0
0
0
0
0
0
0
0
0
0
0
0
0
0
0
0
0
0
0
0
0
0
0
0
0
0
0
0
0
0
0
0
0
0
0
0
0
0
0
0
0
0
0
0
0
0
0
0
0
0
0
0
0
0
0
0
0
0
0
0
0
0
0
0
0
0
0
0
0
0
0
0
0
0
0
0
0
0
0
0
0
0
0
0
0
0
0
0
0
0
0
0
0
0
0
0
0
0
0
0
0
0
0
0
0
0
0
0
0
0
0
0
0
0
0
0
0
730.0804
0
0
555.80562
144.47537
197.78771
0
163.25237
0
0
0
0
0
749.67171
698.95859
0
0
0
0
163.45169
294.97057
99.329711
53.599293
167.64658
126.15965
186.95852
106.29138
0
0
0
40.618858
0
20.022562
0
0
247.74119
419.30857
247.34157
0
0
0
0
751.62544
693.63944
651.78061
641.6801
586.49993
0
0
0
0
0
0
0
77.873944
210.69437
55.128648
109.86821
0
0
0
0
0
17.669568
105.87544
139.58679
87.123308
0
41.641427
51.629013
0
0
0
372.21727
239.80054
202.32955
116.47384
133.16767
227.28595
117.8531
15.083801
76.486145
56.797129
245.10222
329.42366
274.81593
314.53186
197.90894
140.15477
267.33707
0
0
2.5383348
0
0
0
0
0
0
0
0
0
0
0
0
0
0
0
0
0
0
0
0
691.33309
681.14834
663.1221
655.16144
524.21564
562.12795
0
0
183.69135
243.57442
105.22345
110.62715
142.82549
0
0
0
0
690.4368
719.33743
547.51474
503.61074
385.52938
252.21645
0
0
598.05095
408.78029
233.96558
354.79375
283.06692
0
0
0
304.70917
384.54966
463.41145
438.17049
340.65274
446.07637
304.9335
391.90724
31.429271
87.245159
32.255828
0
116.085
165.13526
92.749281
5.2477062
1.2944122
19.095187
132.53816
75.519446
124.63154
0
0
0
0
0
0
0
0
0
0
0
484.3739
267.96884
170.7737
63.826522
339.27322
0
0
0
0
0
127.45967
103.50133
67.806163
0
0
157.85524
124.74055
315.96804
444.67865
265.04074
214.97588
0
0
735.0268
627.63338
717.09822
0
0
0
487.31489
570.94986
519.80549
216.62379
0
0
0
517.531
390.83805
310.97358
476.75761
731.66515
665.526
419.69449
437.27952
430.41546
554.60776
677.87922
590.04574
511.20345
0
0
0
0
0
0
26.58085
0
21.383191
84.20919
76.236055
155.16545
137.75703
0
0
5.7322192
20.201813
0
156.74067
106.23163
162.66478
13.0209
125.11652
127.72767
112.56491
0
115.05401
15.599405
0
525.78575
410.88753
439.39828
144.34838
215.67024
67.962324
59.694622
0
0
0
24.827994
0
2.953495
0
0
0
0
0
0
0
0
0
0
0
0
0
0
0
0
0
189.69581
0
584.34501
520.05045
551.84991
616.15388
598.52246
535.05758
220.63645
32.624256
0
0
477.31749
316.24202
246.08122
394.09325
380.66462
0
0
0
0
0
0
240.20763
277.48326
292.90422
313.15716
244.70559
320.03979
400.67454
375.24336
208.81734
266.11469
228.64672
328.12548
410.23629
438.81372
355.92094
0
0
0
45.833983
0
0
0
0
35.749509
13.717898
19.308401
28.508575
34.894403
7.2785063
82.467153
179.1621
67.666579
45.066114
65.935606
26.240887
67.932194
90.308097
42.206552
21.44235
184.86203
0
0
0
89.924758
0
0
0
0
120.80548
0
0
0
0
221.81196
385.1527
190.83738
102.47906
121.41953
144.88982
547.37711
477.1858
641.7669
481.17972
437.6856
418.04394
367.99521
233.58482
88.462164
120.42087
111.38764
179.62834
307.75201
304.17528
198.57308
243.66453
)


1127
(
0
585.76158
0
0
0
0
0
0
0
0
0
0
0
585.76158
0
0
0
0
0
585.76158
585.76158
585.76158
119.99061
0
0
585.76158
585.76158
0
0
585.76158
0
0
0
0
0
0
0
0
0
0
0
0
0
0
585.76158
0
0
0
585.76158
585.76158
585.76158
585.76158
111.07209
119.99061
585.76158
585.76158
0
0
0
0
0
0
0
0
0
585.76158
585.76158
0
0
0
0
0
0
585.76158
585.76158
585.76158
585.76158
158.63379
119.99061
111.07209
585.76158
72.881902
72.881902
0
0
0
0
0
0
0
585.76158
0
585.76158
0
0
0
0
0
0
0
0
0
0
72.881902
119.99061
585.76158
0
0
0
147.49935
147.49935
158.63379
0
0
0
585.76158
585.76158
585.76158
585.76158
585.76158
585.76158
0
0
585.76158
0
0
0
0
0
0
0
0
0
202.50854
202.50854
0
0
0
0
0
0
0
585.76158
585.76158
585.76158
0
0
119.99061
585.76158
585.76158
0
0
0
0
0
0
0
0
0
0
0
0
0
0
0
0
0
0
0
0
0
0
577.18961
0
0
577.18961
0
577.18961
585.76158
585.76158
585.76158
111.07209
147.49935
147.49935
0
0
0
0
0
0
0
0
0
0
0
0
585.76158
585.76158
585.76158
585.76158
585.76158
417.83669
202.50854
585.76158
585.76158
119.99061
585.76158
0
72.881902
72.881902
202.50854
72.881902
72.881902
72.881902
0
0
0
0
0
0
0
119.99061
119.99061
585.76158
585.76158
585.76158
585.76158
0
0
0
585.76158
585.76158
585.76158
585.76158
585.76158
585.76158
585.76158
585.76158
585.76158
585.76158
585.76158
585.76158
111.07209
0
0
0
0
0
0
0
0
0
0
0
0
0
0
0
0
0
0
0
0
0
0
0
0
0
0
0
0
0
0
0
0
0
0
0
0
0
0
0
0
0
0
0
0
0
0
0
0
0
0
0
0
0
0
0
0
0
0
0
0
0
0
0
0
0
0
0
0
0
0
0
0
0
0
0
0
0
0
0
0
0
0
0
0
0
0
0
0
0
0
0
0
0
0
0
0
0
0
0
0
0
0
0
0
0
0
0
0
0
0
0
0
0
0
0
0
0
0
0
0
0
0
0
0
0
0
0
0
0
0
0
0
0
0
0
0
0
0
0
0
0
0
0
0
0
0
0
0
0
0
0
0
0
0
0
0
0
0
0
0
0
0
0
0
0
0
0
0
0
0
0
0
0
0
0
0
0
0
0
0
0
0
0
0
0
0
0
0
0
0
0
0
0
0
0
0
0
0
0
0
0
0
0
0
0
0
0
0
0
0
0
0
0
0
0
0
0
0
0
0
0
0
0
0
0
0
0
0
0
0
0
0
0
0
0
0
0
0
0
0
0
0
0
0
0
0
0
0
0
0
0
0
0
0
0
0
0
0
0
0
0
0
0
0
0
0
0
0
0
0
0
0
0
0
0
0
0
0
0
0
0
0
0
0
0
0
0
0
0
0
0
0
0
0
0
0
0
0
0
0
0
0
0
0
0
0
0
0
0
0
0
0
0
0
0
0
0
0
0
0
0
0
0
0
0
0
0
0
0
0
0
0
0
0
0
0
0
0
0
0
0
0
0
0
0
0
0
0
0
0
0
0
0
0
0
0
0
0
0
0
0
0
0
0
0
0
0
0
0
0
0
0
0
0
0
0
0
0
0
0
0
0
0
0
0
0
0
0
0
0
0
0
0
0
0
0
0
0
0
0
0
0
0
0
0
0
0
0
0
0
0
0
0
0
0
0
0
0
0
0
0
0
0
0
0
0
0
0
0
0
0
0
0
0
0
0
0
0
0
0
0
0
0
0
0
0
0
0
0
0
0
0
0
0
0
0
0
0
0
0
0
0
0
0
0
0
0
0
0
0
0
0
0
0
0
0
0
0
0
0
0
0
0
0
0
0
0
0
0
0
0
0
0
0
0
0
0
0
0
0
572.77968
0
0
437.03827
0
0
0
0
0
0
0
0
0
614.00294
537.13744
0
0
0
0
4.765195
97.449679
0
0
0
0
0
0
0
0
0
0
0
0
0
0
0
304.73973
0
0
0
0
0
641.18961
641.98879
621.08754
497.43828
481.58927
0
0
0
0
0
0
0
0
20.767614
69.642758
0
0
0
0
0
0
0
0
0
0
0
0
0
0
0
0
393.58069
245.7703
246.4675
84.568465
130.55726
203.67511
0
0
0
0
0
0
0
0
0
0
0
0
0
9.1779574
0
0
0
0
0
0
0
0
0
0
0
0
0
0
0
0
0
0
0
0
531.87723
550.77534
509.01076
480.89737
327.83608
361.51842
0
0
0
0
0
0
0
0
0
0
0
628.01919
622.98447
477.97754
414.31592
249.18747
63.950873
0
0
430.70201
250.04073
51.511559
156.6681
88.299624
0
0
0
0
358.29461
435.58128
378.37423
236.54159
363.70361
0
0
0
0
0
0
0
0
99.517165
32.885992
50.780494
0
0
0
0
0
0
0
0
0
0
0
0
0
0
0
298.73384
158.81463
53.159793
0
208.88034
0
0
0
0
0
63.924595
24.367875
15.251358
0
0
0
0
319.99716
439.75508
330.79944
0
0
0
611.08291
434.36833
582.13681
0
0
0
456.71986
569.23495
518.07692
136.18599
0
0
0
497.13469
439.0158
340.04528
513.93657
617.96993
553.37989
321.89914
294.2784
365.08356
571.48845
577.86756
568.59286
471.22679
0
0
0
0
0
0
0
0
0
0
0
0
0
0
0
0
0
0
126.8342
0
131.98985
0
0
0
0
0
0
0
0
554.19597
420.26773
407.66853
167.67331
164.18131
131.59154
99.698772
0
0
0
47.569438
0
83.825803
0
0
0
0
0
0
0
0
0
0
0
0
0
0
0
0
0
0
0
477.4923
384.86897
415.97486
538.65554
554.72245
495.38352
141.04652
0
0
0
296.3502
129.0535
83.302496
191.17277
183.00305
0
0
0
0
0
0
199.13283
186.48339
238.88931
275.25231
196.4689
0
351.72054
309.31748
0
0
0
0
0
0
0
0
0
0
0
0
0
0
0
0
0
0
0
0
0
0
0
0
0
0
0
109.44622
0
119.28652
68.385453
0
0
0
0
0
0
0
0
0
0
0
0
0
0
94.305327
261.77882
106.93409
36.80723
22.196158
7.0320455
376.08495
280.13692
457.51317
329.65779
265.40726
231.80437
207.72484
107.2762
0
0
0
28.710254
172.14452
124.93922
24.620217
82.406911
)


1127
(
536.2201
536.2201
0
0
0
0
0
0
0
0
0
0
0
0
0
0
0
0
0
536.2201
536.2201
536.2201
0
0
0
536.2201
0
0
0
535.91272
0
0
0
0
0
0
0
0
0
0
0
0
0
0
0
0
0
0
536.2201
536.2201
0
0
0
0
0
0
0
0
0
0
0
0
0
0
0
536.2201
536.2201
0
0
0
0
0
0
0
536.2201
0
535.06678
0
0
0
0
0
0
0
0
0
0
0
0
0
0
0
535.91272
0
0
0
0
0
0
0
0
0
0
0
0
0
0
0
0
0
0
0
0
0
0
0
535.06678
0
536.2201
536.2201
536.2201
0
0
536.2201
0
0
0
0
0
0
0
0
0
0
0
0
0
0
0
0
0
0
536.2201
536.2201
536.2201
0
0
0
536.2201
0
0
0
0
0
0
0
0
0
0
0
0
0
0
0
0
0
0
0
0
0
0
0
0
0
0
0
0
0
536.2201
535.06678
0
0
0
0
0
0
0
0
0
0
0
0
0
0
0
0
536.2201
536.2201
536.2201
0
0
0
0
0
0
0
0
0
0
0
0
0
0
0
0
0
0
0
0
0
0
0
0
536.2201
536.2201
536.2201
536.2201
0
0
0
536.2201
536.2201
535.06678
536.2201
0
0
0
0
536.2201
536.2201
0
0
0
0
0
0
0
0
0
0
0
0
0
0
0
0
0
0
0
0
0
0
0
0
0
0
0
0
0
0
0
0
0
0
0
0
0
0
0
0
0
0
0
0
0
0
0
0
0
0
0
0
0
0
0
0
0
0
0
0
0
0
0
0
0
0
0
0
0
0
0
0
0
0
0
0
0
0
0
0
0
0
0
0
0
0
0
0
0
0
0
0
0
0
0
0
0
0
0
0
0
0
0
0
0
0
0
0
0
0
0
0
0
0
0
0
0
0
0
0
0
0
0
0
0
0
0
0
0
0
0
0
0
0
0
0
0
0
0
0
0
0
0
0
0
0
0
0
0
0
0
0
0
0
0
0
0
0
0
0
0
0
0
0
0
0
0
0
0
0
0
0
0
0
0
0
0
0
0
0
0
0
0
0
0
0
0
0
0
0
0
0
0
0
0
0
0
0
0
0
0
0
0
0
0
0
0
0
0
0
0
0
0
0
0
0
0
0
0
0
0
0
0
0
0
0
0
0
0
0
0
0
0
0
0
0
0
0
0
0
0
0
0
0
0
0
0
0
0
0
0
0
0
0
0
0
0
0
0
0
0
0
0
0
0
0
0
0
0
0
0
0
0
0
0
0
0
0
0
0
0
0
0
0
0
0
0
0
0
0
0
0
0
0
0
0
0
0
0
0
0
0
0
0
0
0
0
0
0
0
0
0
0
0
0
0
0
0
0
0
0
0
0
0
0
0
0
0
0
0
0
0
0
0
0
0
0
0
0
0
0
0
0
0
0
0
0
0
0
0
0
0
0
0
0
0
0
0
0
0
0
0
0
0
0
0
0
0
0
0
0
0
0
0
0
0
0
0
0
0
0
0
0
0
0
0
0
0
0
0
0
0
0
0
0
0
0
0
0
0
0
0
0
0
0
0
0
0
0
0
0
0
0
0
0
0
0
0
0
0
0
0
0
0
0
0
0
0
0
0
0
0
0
0
0
0
0
0
0
0
0
0
0
0
0
0
0
0
0
0
0
0
0
0
0
0
0
0
0
0
0
0
0
0
0
0
0
0
0
0
0
0
0
0
0
0
0
0
0
0
0
0
0
0
0
0
0
0
0
0
0
0
0
0
0
0
0
0
0
0
0
0
0
496.47536
0
0
386.96011
0
0
0
0
0
0
0
0
0
561.05674
454.61772
0
0
0
0
0
0
0
0
0
0
0
0
0
0
0
0
0
0
0
0
0
0
0
0
0
0
0
612.95603
0
0
429.00311
448.24565
0
0
0
0
0
0
0
0
0
0
0
0
0
0
0
0
0
0
0
0
0
0
0
0
0
0
0
0
0
0
0
0
0
0
0
0
0
0
0
0
0
0
0
0
0
0
0
0
0
0
0
0
0
0
0
0
0
0
0
0
0
0
0
0
0
0
444.32854
489.43697
422.46851
381.74204
192.03242
222.84071
0
0
0
0
0
0
0
0
0
0
0
0
0
0
0
0
0
0
0
334.20066
143.98657
0
0
0
0
0
0
0
0
0
0
0
0
0
0
0
0
0
0
0
0
0
0
0
0
0
0
0
0
0
0
0
0
0
0
0
0
0
0
161.45938
0
0
0
0
0
0
0
0
0
0
0
0
0
0
0
0
0
0
0
0
0
0
569.88998
309.60402
521.60883
0
0
0
0
0
0
0
0
0
0
0
0
0
0
586.78867
519.4376
279.93368
207.73321
356.64686
0
556.85276
0
0
0
0
0
0
0
0
0
0
0
0
0
0
0
0
0
0
0
0
0
0
0
0
0
0
0
0
0
0
0
0
0
0
0
148.00131
0
0
0
0
0
0
0
0
0
0
0
0
0
0
0
0
0
0
0
0
0
0
0
0
0
0
0
0
0
332.68569
0
0
0
0
0
0
0
173.42593
0
0
31.840168
24.788765
0
0
0
0
0
0
0
0
0
0
0
0
0
0
0
0
0
0
0
0
0
0
0
0
0
0
0
0
0
0
0
0
0
0
0
0
0
0
0
0
0
0
0
0
0
0
0
0
0
0
0
0
0
0
0
0
0
0
0
0
190.22536
55.346402
0
0
0
258.97463
132.55228
340.98786
223.14473
134.7905
86.686048
80.434225
0
0
0
0
0
0
0
0
0
)


1127
(
411.8157
411.8157
0
411.8157
0
0
0
0
0
0
0
0
0
411.8157
0
0
0
411.8157
0
411.8157
411.8157
411.8157
0
0
0
0
0
0
0
0
0
0
0
0
0
0
0
0
0
411.8157
0
0
0
0
0
0
0
0
0
0
0
0
0
0
0
0
0
0
0
0
0
0
0
0
0
411.8157
411.8157
0
0
0
0
0
0
0
0
0
0
0
0
0
411.8157
0
0
0
0
0
0
0
0
0
0
0
0
0
0
0
0
0
0
0
0
0
0
0
0
0
0
0
0
0
0
0
0
0
0
0
0
0
411.8157
411.8157
411.8157
0
0
0
0
0
0
0
0
0
0
0
0
0
0
0
411.8157
411.8157
411.8157
411.8157
0
411.8157
411.8157
411.8157
411.8157
0
0
0
0
0
0
0
0
0
0
0
0
0
0
0
0
0
0
0
411.8157
411.8157
0
411.8157
0
0
0
0
0
0
0
0
0
0
0
0
0
0
0
0
0
0
0
0
0
0
0
0
0
0
0
0
411.8157
411.8157
411.8157
0
0
0
0
0
0
0
0
0
0
0
0
0
0
0
0
0
0
0
0
0
0
0
0
411.8157
411.8157
411.8157
411.8157
0
0
0
0
0
0
0
0
0
0
0
0
0
410.78841
410.78841
0
0
0
0
0
0
0
0
0
0
0
0
0
0
0
0
0
0
0
0
0
0
0
0
0
0
0
0
0
0
0
0
0
0
0
0
0
0
0
0
0
0
0
0
0
0
0
0
0
0
0
0
0
0
0
0
0
0
0
0
0
0
0
0
0
0
0
0
0
0
0
0
0
0
0
0
0
0
0
0
0
0
0
0
0
0
0
0
0
0
0
0
0
0
0
0
0
0
0
0
0
0
0
0
0
0
0
0
0
0
0
0
0
0
0
0
0
0
0
0
0
0
0
0
0
0
0
0
0
0
0
0
0
0
0
0
0
0
0
0
0
0
0
0
0
0
0
0
0
0
0
0
0
0
0
0
0
0
0
0
0
0
0
0
0
0
0
0
0
0
0
0
0
0
0
0
0
0
0
0
0
0
0
0
0
0
0
0
0
0
0
0
0
0
0
0
0
0
0
0
0
0
0
0
0
0
0
0
0
0
0
0
0
0
0
0
0
0
0
0
0
0
0
0
0
0
0
0
0
0
0
0
0
0
0
0
0
0
0
0
0
0
0
0
0
0
0
0
0
0
0
0
0
0
0
0
0
0
0
0
0
0
0
0
0
0
0
0
0
0
0
0
0
0
0
0
0
0
0
0
0
0
0
0
0
0
0
0
0
0
0
0
0
0
0
0
0
0
0
0
0
0
0
0
0
0
0
0
0
0
0
0
0
0
0
0
0
0
0
0
0
0
0
0
0
0
0
0
0
0
0
0
0
0
0
0
0
0
0
0
0
0
0
0
0
0
0
0
0
0
0
0
0
0
0
0
0
0
0
0
0
0
0
0
0
0
0
0
0
0
0
0
0
0
0
0
0
0
0
0
0
0
0
0
0
0
0
0
0
0
0
0
0
0
0
0
0
0
0
0
0
0
0
0
0
0
0
0
0
0
0
0
0
0
0
0
0
0
0
0
0
0
0
0
0
0
0
0
0
0
0
0
0
0
0
0
0
0
0
0
0
0
0
0
0
0
0
0
0
0
0
0
0
0
0
0
0
0
0
0
0
0
0
0
0
0
0
0
0
0
0
0
0
0
0
0
0
0
0
0
0
0
0
0
0
0
0
0
0
0
0
0
0
0
0
0
0
0
0
0
0
0
0
0
0
0
0
0
0
0
0
0
0
0
0
0
0
0
0
0
0
0
0
0
0
0
0
0
0
0
0
0
0
0
0
0
0
0
0
0
0
0
0
0
0
0
0
0
0
0
0
0
0
0
0
0
0
0
0
0
0
0
0
0
0
0
0
0
0
0
0
0
0
0
0
0
0
0
0
0
0
0
0
0
0
0
0
0
0
0
0
0
0
0
0
0
0
0
0
0
0
0
0
0
0
0
0
0
0
0
0
0
0
0
0
0
0
0
0
0
0
0
0
0
0
0
0
0
0
0
0
0
0
0
0
0
0
0
0
0
0
0
0
0
0
0
0
0
0
0
0
0
0
0
0
0
0
0
0
0
0
0
0
0
0
0
0
0
0
0
0
0
0
0
0
0
0
0
0
0
0
0
0
0
0
0
0
0
0
0
0
0
0
0
0
0
0
0
0
0
0
0
0
0
0
0
0
0
0
0
0
0
0
0
0
0
0
0
0
0
0
0
0
0
0
0
0
0
0
0
0
0
0
0
0
0
0
0
0
0
0
0
0
0
0
0
0
0
0
0
0
0
0
0
0
0
0
0
0
0
0
0
0
0
0
0
0
0
0
0
0
0
0
0
0
0
0
0
0
0
0
0
0
0
0
0
0
0
0
0
0
0
0
0
0
0
0
0
0
0
0
0
0
0
0
0
0
0
0
0
0
0
0
0
0
0
0
0
0
0
0
0
0
0
0
0
0
0
0
0
0
0
0
0
0
0
0
0
0
0
0
0
0
0
0
0
0
0
0
0
0
0
0
0
0
0
0
0
0
0
0
0
0
0
0
0
0
0
0
0
0
0
0
0
0
0
0
0
0
0
0
0
0
0
0
)


1127
(
284.42858
284.42858
0
284.42858
0
0
0
284.42858
284.42858
0
0
284.42858
0
284.42858
0
284.42858
284.42858
284.42858
284.42858
284.42858
284.42858
284.42858
284.42858
284.42858
0
0
0
0
0
0
0
284.42858
0
284.42858
0
0
0
0
0
284.42858
284.42858
284.42858
0
0
0
0
0
0
0
0
0
0
284.42858
284.42858
0
0
284.42858
0
0
0
0
0
0
0
0
284.42858
284.42858
0
0
0
0
0
0
0
0
0
0
0
284.42858
284.42858
284.42858
0
0
0
0
0
284.42858
0
0
0
0
0
0
0
0
0
0
0
0
0
0
0
0
0
284.42858
284.42858
0
0
0
0
0
0
0
0
0
0
0
0
284.42858
284.42858
284.42858
0
0
0
284.42858
0
0
0
0
0
0
284.42858
0
0
0
284.42858
284.42858
284.42858
284.42858
284.42858
284.42858
284.42858
284.42858
284.42858
284.42858
284.42858
283.94139
277.59464
0
0
0
0
284.42858
0
0
0
284.42858
0
0
0
0
0
0
284.42858
284.42858
284.42858
284.42858
284.42858
284.42858
0
0
0
0
0
0
0
0
0
0
0
0
284.42858
0
0
0
0
0
0
0
0
0
0
0
0
0
0
284.42858
284.42858
284.42858
0
0
0
0
0
0
284.42858
284.42858
284.42858
0
0
0
0
0
0
0
0
0
0
0
0
0
277.59464
277.59464
284.42858
284.42858
284.42858
284.42858
284.42858
0
0
0
0
0
0
0
0
0
0
0
0
284.42858
284.42858
284.42858
13.053587
13.053587
13.053587
13.053587
0
0
0
0
0
0
0
0
0
0
13.053587
13.053587
13.053587
13.053587
13.053587
13.053587
13.053587
13.053587
13.053587
13.053587
13.053587
13.053587
0
0
0
0
0
0
0
0
0
0
0
0
0
0
0
0
0
0
0
0
0
0
0
0
0
0
0
0
0
0
0
0
0
0
0
0
0
0
13.053587
13.053587
13.053587
13.053587
13.053587
13.053587
0
0
13.053587
0
13.053587
13.053587
0
13.053587
13.053587
0
0
13.053587
13.053587
13.053587
0
13.053587
13.053587
13.053587
13.053587
13.053587
13.053587
13.053587
13.053587
13.053587
13.053587
13.053587
13.053587
13.053587
13.053587
13.053587
13.053587
13.053587
13.053587
0
13.053587
13.053587
13.053587
13.053587
13.053587
13.053587
13.053587
13.053587
13.053587
0
0
13.053587
13.053587
13.053587
13.053587
13.053587
0
0
0
0
0
0
0
0
0
0
0
0
0
0
0
0
0
0
0
0
0
0
0
0
0
0
0
0
0
0
0
0
0
0
0
0
0
0
0
0
0
0
0
0
0
0
0
0
0
0
0
0
0
0
0
0
0
13.053587
13.053587
13.053587
13.053587
0
0
0
0
0
0
13.053587
13.053587
0
0
13.053587
13.053587
13.053587
13.053587
13.053587
0
0
13.053587
13.053587
13.053587
13.053587
0
0
13.053587
13.053587
13.053587
13.053587
0
0
13.053587
13.053587
13.053587
13.053587
13.053587
13.053587
0
0
13.053587
13.053587
13.053587
13.053587
13.053587
13.053587
13.053587
13.053587
13.053587
0
0
0
0
0
0
0
0
0
0
0
0
0
0
0
0
0
0
0
0
0
0
0
0
0
0
0
0
13.053587
13.053587
13.053587
13.053587
13.053587
13.053587
13.053587
13.053587
13.053587
13.053587
13.053587
13.053587
13.053587
13.053587
13.053587
13.053587
13.053587
13.053587
13.053587
13.053587
13.053587
13.053587
13.053587
13.053587
0
0
0
0
0
0
0
0
0
0
0
0
0
0
0
0
0
0
0
0
0
0
0
0
0
0
0
0
0
0
0
0
0
0
0
0
0
0
0
0
0
0
0
0
0
0
0
0
0
0
0
0
0
0
0
0
0
0
0
0
0
0
0
0
0
0
0
0
0
0
0
0
0
0
0
0
0
0
0
0
0
0
0
0
0
0
0
0
0
0
0
0
0
0
0
0
0
0
0
0
0
0
0
0
0
13.053587
13.053587
13.053587
13.053587
0
0
0
13.053587
13.053587
0
13.053587
13.053587
13.053587
13.053587
0
0
0
0
0
0
0
0
0
0
13.053587
13.053587
0
0
13.053587
0
0
0
0
13.053587
13.053587
13.053587
0
0
0
0
0
0
0
0
0
0
0
0
0
0
0
0
0
0
0
0
0
0
0
0
0
0
0
0
0
0
0
0
0
0
0
0
0
0
0
0
0
0
0
0
0
0
0
0
0
0
0
0
0
0
0
0
0
0
0
0
0
0
0
0
0
0
0
0
13.053587
13.053587
13.053587
13.053587
13.053587
13.053587
13.053587
13.053587
13.053587
13.053587
13.053587
13.053587
0
0
0
0
0
0
0
0
231.85699
0
0
0
0
0
0
0
0
0
0
0
0
0
0
0
0
0
0
73.821238
0
0
0
0
0
39.310362
0
0
0
0
0
0
0
0
0
0
0
0
0
0
0
0
0
0
0
0
0
0
0
0
0
0
0
0
0
0
0
0
0
0
0
0
0
0
0
0
0
0
0
0
0
0
0
0
0
0
0
0
0
0
0
0
135.63078
0
0
0
0
0
0
0
0
0
0
0
0
0
0
0
0
0
92.955021
0
0
0
0
0
0
0
0
0
0
0
0
0
0
0
0
0
0
0
0
0
0
0
0
0
0
0
0
0
0
0
0
0
0
0
0
0
0
0
0
0
0
0
0
0
0
0
0
0
0
0
0
0
0
0
0
0
0
0
0
0
0
0
0
0
0
0
0
0
0
0
0
0
0
0
0
0
0
0
0
0
0
0
0
0
0
0
0
0
0
0
0
0
0
0
0
97.388994
10.585331
0
0
0
0
0
0
0
0
0
0
0
0
0
0
0
0
0
0
0
0
0
0
0
0
0
0
0
0
0
0
0
0
0
0
0
0
0
0
0
0
0
0
0
0
0
0
0
0
0
0
0
0
0
0
0
0
140.21304
0
118.55351
0
140.87163
0
0
0
0
0
0
0
0
0
0
0
0
0
0
0
38.181722
0
0
0
0
0
0
0
0
0
0
0
0
0
0
0
0
0
0
0
0
0
0
0
0
0
0
0
0
0
0
0
0
0
0
0
0
0
0
0
0
0
0
0
0
0
0
0
0
0
0
0
0
0
0
0
0
0
0
0
0
0
0
0
0
0
0
0
0
0
0
0
0
0
0
0
0
0
0
0
0
0
0
0
0
0
0
0
0
0
0
0
0
0
0
0
0
0
0
0
0
)

)


// ************************************************************************* //
