/*--------------------------------*- C++ -*----------------------------------*\
  =========                 |
  \\      /  F ield         | OpenFOAM: The Open Source CFD Toolbox
   \\    /   O peration     | Website:  https://openfoam.org
    \\  /    A nd           | Version:  8
     \\/     M anipulation  |
\*---------------------------------------------------------------------------*/
/*   Windows 32 and 64 bit porting by blueCAPE: http://www.bluecape.com.pt   *\
|  Based on Windows porting (2.0.x v4) by Symscape: http://www.symscape.com   |
\*---------------------------------------------------------------------------*/
FoamFile
{
    version     2.0;
    format      ascii;
    class       scalarListList;
    location    "constant/vegetation";
    object      F;
}
// * * * * * * * * * * * * * * * * * * * * * * * * * * * * * * * * * * * * * //


48
(

2059
(
0.0021765945
0.00055622287
0.0014010554
0.00072736022
0.00093218022
5.4501577e-07
4.311108e-07
3.1236766e-07
3.2904461e-07
2.9678693e-07
3.9019028e-07
4.1488949e-07
3.6712113e-07
3.4708651e-07
3.1289636e-07
3.9968252e-07
3.9751421e-07
2.8227921e-07
4.433865e-07
3.4504879e-07
4.4162088e-07
2.5405645e-07
2.6882501e-07
3.7900865e-07
2.4902061e-07
3.8346454e-07
3.0902606e-07
4.0088978e-07
3.0838033e-07
3.6204061e-07
4.2189072e-07
4.8058092e-07
4.4270087e-07
4.6195931e-07
4.6020881e-07
2.9600919e-07
2.106164e-07
2.2886675e-07
2.535256e-07
2.470699e-07
3.0885838e-07
2.2147371e-07
2.2303364e-07
2.2355725e-07
4.411029e-07
4.8356136e-07
4.6346712e-07
0.00093218347
0.0016062831
0.00047457884
3.5249032e-07
4.896506e-07
3.3535741e-07
4.2185066e-07
4.432724e-07
6.4179455e-07
4.1251985e-07
4.3626805e-07
2.9009532e-07
2.6294522e-07
3.8715249e-07
3.3971786e-07
3.839133e-07
3.7093203e-07
4.5252186e-07
3.1952673e-07
3.6869835e-07
4.8123771e-07
4.2353019e-07
4.5853045e-07
4.3148351e-07
7.0380928e-07
6.5910977e-07
5.2194612e-07
5.059464e-07
6.0628434e-07
6.9731954e-07
5.5649782e-07
6.5094139e-07
3.9083051e-07
4.5778913e-07
3.0515222e-07
4.8221259e-07
6.193069e-07
2.9486949e-07
4.0245226e-07
4.637059e-07
1.98296e-07
1.6658226e-07
4.6670288e-07
4.8724051e-07
6.8151779e-07
6.1169071e-07
3.0082891e-07
3.887653e-07
2.8391538e-07
3.7097812e-07
2.9807271e-07
3.7953657e-07
3.8547547e-07
4.064303e-07
4.7785371e-07
4.6056744e-07
4.1790701e-07
4.4285636e-07
7.0993584e-07
7.2147805e-07
7.0707108e-07
6.6387849e-07
4.9256423e-07
5.7638958e-07
5.0222818e-07
5.3504919e-07
5.9565137e-07
5.682907e-07
6.9109284e-07
7.1319138e-07
5.9375226e-07
6.1745688e-07
3.9039373e-07
4.5393485e-07
4.3165003e-07
4.4982954e-07
6.9834706e-07
6.3916755e-07
4.0915321e-07
5.2776711e-07
5.7791037e-07
6.209395e-07
2.3898397e-08
4.4270101e-07
5.1325874e-07
6.8063263e-07
3.0293289e-07
2.2097532e-07
2.1899208e-07
2.9145012e-07
2.9488405e-07
2.1129483e-07
2.162295e-07
4.2463498e-07
4.5610975e-07
4.3727637e-07
7.2816754e-07
7.1372189e-07
5.42418e-07
5.2928006e-07
5.5979763e-07
7.0220335e-07
6.6216595e-07
4.4482532e-07
5.3661335e-07
6.8603323e-07
5.1614765e-07
6.859767e-07
3.2747009e-05
3.2370717e-05
3.1830144e-05
2.3780742e-06
2.1163888e-06
2.100157e-06
3.2332376e-05
2.4102276e-06
3.9773964e-07
7.2022481e-07
2.6416194e-06
7.2430337e-07
2.3841465e-06
2.3649595e-06
7.3238846e-07
5.6678042e-07
2.6788925e-06
7.305662e-07
4.1822404e-07
5.2851061e-06
6.5723549e-06
6.645781e-06
6.653218e-06
6.6571958e-06
6.5348552e-06
6.3527997e-06
5.3498472e-06
6.2593752e-06
3.8945789e-07
3.9016251e-07
3.9316431e-07
3.935196e-07
3.9365131e-07
7.8516152e-06
6.8506842e-06
6.6426136e-06
6.6951661e-06
3.9384127e-07
4.5951105e-06
4.6168393e-06
3.2953498e-05
7.6720883e-06
7.6759389e-06
7.5782585e-06
3.2662664e-05
7.6628027e-06
4.650662e-06
4.6567108e-06
4.5688531e-06
4.5379038e-06
6.0311778e-06
7.07422e-06
7.5325138e-06
3.0231956e-05
7.1775273e-06
3.5918422e-06
4.1812061e-06
4.0522077e-07
2.2498053e-06
4.034811e-07
4.0331315e-07
3.9996602e-07
2.2439555e-06
4.0280102e-07
2.0948773e-06
3.3958579e-06
3.2017073e-05
7.6580164e-06
7.5943435e-06
8.3084368e-06
7.7893248e-06
4.6397413e-06
4.6240611e-06
4.0987709e-07
4.7205479e-07
5.0235826e-07
6.6825571e-07
7.3218975e-07
6.7046166e-07
6.770084e-07
7.3336201e-07
6.7746931e-07
6.7801539e-07
7.1979036e-07
5.2784395e-07
6.807842e-07
7.2204415e-07
6.7734661e-07
6.7936031e-07
4.9387449e-07
5.2839139e-07
6.3405114e-07
5.4279566e-06
6.6032416e-06
5.4532618e-06
4.6466793e-06
4.6341326e-06
6.6277501e-06
5.4881684e-06
5.4733971e-06
4.6547822e-06
4.6580464e-06
5.4940651e-06
6.6604457e-06
5.5002582e-06
5.4976151e-06
6.6619572e-06
5.5015035e-06
5.3972483e-06
6.4869838e-06
5.3610466e-06
4.4603185e-06
4.5021056e-06
6.4257061e-06
5.2622247e-06
5.317472e-06
4.4095653e-06
4.3396843e-06
4.4116345e-06
5.9206644e-06
4.8789898e-06
5.1858508e-06
6.1319953e-06
5.0745434e-06
9.7658207e-06
7.2287667e-06
6.2725317e-06
4.5008422e-06
4.2656577e-06
7.0985545e-06
5.5634413e-06
5.7457022e-06
4.5701342e-06
4.602655e-06
5.4842202e-06
6.6321047e-06
5.4739069e-06
5.490674e-06
6.6372466e-06
5.4710238e-06
5.8718772e-07
2.5318734e-06
5.8672128e-07
5.8682168e-07
2.5249492e-06
5.8078769e-07
5.8596865e-07
4.9665975e-07
5.9500562e-07
6.3818023e-07
4.8231245e-07
7.1542005e-07
7.3861136e-07
7.2765828e-07
7.4272777e-07
7.3345425e-07
7.5086282e-07
6.7425851e-07
5.8047567e-07
7.2807852e-07
7.4908411e-07
4.4062822e-07
5.0708745e-07
6.2250143e-06
3.0611994e-07
3.8921296e-07
3.0742015e-07
3.9129348e-07
3.9237872e-07
3.1001461e-07
3.100315e-07
3.9369505e-07
3.1038912e-07
3.9382331e-07
3.0951983e-07
3.9480403e-07
3.9610705e-07
7.679915e-06
9.2536146e-06
9.2732622e-06
7.6816489e-06
9.2699202e-06
9.2773906e-06
7.6139397e-06
9.140237e-06
9.189851e-06
7.6421247e-06
9.2524368e-06
9.2222848e-06
6.8880056e-06
8.6100257e-06
7.5242166e-06
7.4649213e-06
9.0867586e-06
8.9384121e-06
7.3113428e-06
7.7137395e-06
8.7068289e-06
7.637369e-06
9.2347575e-06
9.1501088e-06
7.5652721e-06
8.190106e-06
9.0221531e-06
8.0050647e-06
9.446951e-06
8.7275454e-06
5.067712e-07
7.2376161e-07
6.6639759e-07
7.3029061e-07
7.5067714e-07
7.277077e-07
6.7303874e-07
7.353612e-07
6.7534258e-07
7.3377496e-07
7.5185306e-07
7.3548956e-07
6.7806194e-07
7.3648728e-07
6.7835345e-07
7.1392063e-07
7.4120245e-07
5.6689711e-07
6.4428222e-07
7.2507231e-07
7.4205377e-07
7.3381896e-07
6.7787558e-07
7.2849064e-07
6.7864339e-07
4.6546861e-07
6.011741e-07
5.3288949e-07
5.5901293e-07
6.3318365e-07
5.9404294e-07
4.1942177e-07
3.6488318e-07
4.0328145e-07
3.5899024e-07
4.0352404e-07
3.6446871e-07
4.0077846e-07
3.5579646e-07
4.0201917e-07
3.640132e-07
4.2556741e-07
3.6910195e-07
3.987518e-07
4.6697196e-07
4.4000513e-07
4.6243894e-07
7.2929682e-07
6.7941084e-07
6.0549026e-07
4.7746775e-07
5.8672228e-07
4.7162375e-07
5.8716615e-07
4.7903106e-07
5.8247917e-07
4.6693361e-07
5.8461506e-07
4.7837043e-07
4.1807284e-07
5.4359532e-07
6.1571298e-07
4.8363691e-07
5.9528497e-07
6.3455954e-07
1.1774847e-05
4.7059505e-06
2.1273379e-06
4.0733821e-06
5.8912396e-06
7.4717396e-06
9.4009333e-06
9.086351e-06
6.8364888e-06
6.6111339e-06
7.1156273e-06
8.8340626e-06
7.9021042e-06
8.4984315e-06
7.3378818e-07
7.4612638e-07
7.5194943e-07
6.9752453e-07
7.4677555e-07
5.3450006e-07
3.0463783e-07
2.2256347e-07
2.2385682e-07
3.0851679e-07
2.2569868e-07
2.2488929e-07
3.0938533e-07
2.2630769e-07
2.2673786e-07
3.1038452e-07
2.2704173e-07
2.2675333e-07
3.1050766e-07
2.2711537e-07
2.2701018e-07
3.0894674e-07
2.2543778e-07
2.2622217e-07
3.08488e-07
2.2446765e-07
7.1914304e-07
8.1530182e-06
8.0631611e-06
7.4877052e-07
7.3097214e-07
7.3352017e-07
7.5226572e-07
7.3653238e-07
7.3686614e-07
7.3663382e-07
6.895467e-07
8.9082314e-06
9.3337115e-06
7.4421134e-07
7.3172729e-07
7.2967786e-07
5.6531263e-07
5.6191212e-07
5.9472671e-07
4.284421e-07
3.6393551e-07
3.6394435e-07
3.616516e-07
3.6255174e-07
4.3477377e-07
4.538044e-07
5.4701292e-07
7.2710838e-07
5.5379573e-07
4.78309e-07
4.7838317e-07
4.7494629e-07
4.7631796e-07
5.2714332e-07
5.6287337e-07
7.00503e-07
0.01384202
0.0027703874
0.0024336518
0.0018711819
1.245619e-05
2.632709e-05
1.7046256e-05
2.5508812e-05
5.0723231e-06
1.0794013e-05
5.5729488e-06
3.9426181e-05
6.5420095e-06
4.3123782e-05
3.9224637e-05
2.2898069e-05
4.8276851e-05
1.5260427e-05
2.2236888e-05
7.1925315e-06
2.1464055e-05
2.2548876e-05
3.8940552e-06
3.6632204e-06
8.3524642e-06
7.5146001e-06
3.8494897e-06
4.3179458e-06
4.6531534e-06
4.4123717e-06
4.7246771e-06
4.6324295e-06
1.0330113e-05
6.1404591e-06
4.3641056e-05
5.7767305e-06
5.765265e-06
7.5458892e-06
4.8184942e-06
5.8255843e-06
5.8683922e-06
9.0078732e-05
2.042437e-05
1.0923617e-05
1.3059168e-05
2.0790836e-05
8.167884e-05
1.011052e-05
9.7697238e-06
1.4135198e-05
4.2154885e-06
9.317749e-06
6.7834138e-06
7.2986151e-06
5.962256e-05
9.9492112e-06
2.683427e-06
4.0614019e-06
2.9257327e-06
4.2009579e-06
3.319331e-06
4.5735151e-06
3.2468492e-06
4.4932807e-06
3.4736698e-06
4.7834785e-06
2.6996974e-05
1.905267e-05
2.4577669e-05
5.9811471e-06
7.3707708e-06
4.8616154e-05
1.780574e-05
1.3943096e-05
7.9379802e-06
8.1268754e-06
2.0322628e-05
2.3583413e-05
5.6823658e-06
5.7614194e-06
5.6630798e-06
6.3389343e-06
5.466315e-06
5.3848975e-06
5.6866903e-06
7.9280969e-06
5.9424112e-06
5.8546725e-06
1.2320403e-05
1.248123e-05
8.6421766e-06
9.8114405e-06
8.7894416e-06
1.1124695e-05
1.0933244e-05
1.1921246e-05
2.34356e-05
1.8281453e-05
2.1512912e-05
1.7795813e-05
7.6960337e-06
6.9113059e-06
1.9399616e-05
2.1680832e-05
1.5082677e-05
1.3198037e-05
2.0985784e-05
1.8115768e-05
3.8895824e-06
8.7759039e-06
9.7371872e-06
5.0840185e-06
8.5269545e-05
3.6078392e-07
2.2169017e-06
3.0606852e-06
3.3809975e-06
3.162144e-06
3.4323847e-06
6.7366689e-06
1.6219004e-05
9.0031075e-06
5.5675797e-06
5.584269e-06
6.1619743e-06
6.5246783e-06
5.9566035e-06
1.418367e-05
9.6398978e-06
9.9935053e-06
1.0730675e-05
1.8768475e-05
1.6953166e-05
7.0235649e-06
1.7625629e-05
1.5072574e-05
1.6683025e-05
6.8184858e-06
7.4975479e-06
0.0029824602
0.0062912571
0.0020355295
5.2465596e-06
5.8012782e-06
1.1305622e-05
1.0125552e-05
7.1544106e-06
6.4320679e-06
7.9931163e-06
8.9862961e-06
2.7256409e-05
4.4076982e-05
2.6673714e-05
1.5460977e-05
6.4946129e-06
4.0880223e-05
2.3678361e-05
4.0145385e-05
7.1648359e-06
2.3219491e-05
5.0276968e-05
1.527014e-05
2.7964653e-05
2.7826556e-05
4.8348113e-06
4.8752434e-06
4.8593153e-06
2.4341636e-05
2.3471682e-05
4.7939365e-06
4.6660313e-06
3.5550266e-06
4.6367352e-06
4.4827591e-05
6.0391872e-06
4.5156837e-05
6.0097913e-06
6.0598415e-06
4.7567889e-06
4.3229591e-06
8.2075837e-06
4.6568476e-06
6.2887771e-06
4.6125654e-05
5.9568577e-06
6.1119854e-06
2.4223316e-05
9.2490305e-05
2.4108042e-05
9.4195583e-05
1.0994086e-05
9.8214094e-06
1.5471601e-05
2.2448703e-05
8.5344771e-05
9.1053953e-05
1.1022672e-05
2.2429669e-05
1.435754e-05
3.3639027e-06
3.9021407e-06
7.8007328e-06
6.2241647e-05
1.0691045e-05
3.5304985e-06
4.8626694e-06
3.5393886e-06
4.8763973e-06
3.5050401e-06
4.8285697e-06
3.4385775e-06
4.7459227e-06
3.3867288e-06
4.701211e-06
2.9730656e-06
4.3073646e-06
3.1865237e-06
4.5746858e-06
2.7673593e-05
2.5961572e-05
2.0065899e-05
5.910514e-06
8.0340389e-06
4.1212035e-05
4.1535188e-05
4.9824674e-05
7.9312932e-06
8.8808167e-06
1.4254953e-05
1.9367702e-05
2.791246e-05
2.7501516e-05
2.5172324e-05
2.2368177e-05
5.9999022e-06
6.0545877e-06
6.0443741e-06
6.0000474e-06
6.0615586e-06
6.0751369e-06
5.3731891e-06
5.8118691e-06
6.248764e-06
8.5715541e-06
5.9026766e-06
5.9448215e-06
5.9336e-06
6.7274279e-06
9.5926786e-06
1.0702633e-05
8.8080402e-06
1.2254752e-05
1.1951927e-05
1.3327864e-05
1.2495637e-05
1.3790003e-05
2.4002311e-05
1.8890979e-05
2.2690528e-05
1.8558498e-05
8.5307397e-06
7.5000103e-06
2.418706e-05
1.9357917e-05
2.384335e-05
1.9270985e-05
2.2375017e-05
1.9539505e-05
2.1615622e-05
2.384086e-05
1.4804502e-05
1.6609194e-05
4.1167581e-06
9.4021227e-06
1.0450913e-05
5.4034928e-06
9.5031327e-05
3.5109223e-06
3.5380303e-06
3.5265228e-06
3.4802869e-06
3.3281309e-06
3.4949789e-06
3.4455814e-06
3.2677187e-06
7.3251707e-06
5.1126352e-05
5.15504e-05
9.8640933e-06
1.7957798e-05
6.0131275e-06
6.0607865e-06
6.0771261e-06
6.6853807e-06
7.1998176e-06
5.7888102e-06
5.8559913e-06
1.0720688e-05
1.0978412e-05
1.1962503e-05
1.5715876e-05
1.920758e-05
1.7858425e-05
7.7708189e-06
1.9334753e-05
1.9063821e-05
1.7759758e-05
1.9794311e-05
1.6944385e-05
7.2215502e-06
7.9525708e-06
0.00085126741
0.0075111684
0.0052274295
0.0018150179
0.0017806348
0.0012713164
0.0012237891
0.0069602867
0.0013647005
0.011643085
0.0036521705
0.0036394008
0.0013378929
0.001025995
0.00094213557
0.00058152644
0.00057685943
0.00054685464
0.00049863713
0.00033830731
0.00024561961
0.00018180211
0.00021493854
0.00010818725
0.00068501261
0.00014534353
0.00010707016
0.00066248985
9.5761916e-05
0.0014991124
0.0014526946
0.00025081759
0.00015449533
0.0012877079
0.00078439776
0.0002366191
0.00015479252
0.00015309067
0.00010065955
0.0001273391
0.00011544716
9.7832416e-05
0.00014211169
0.00055423784
0.00049454476
0.00031935193
0.00043083193
0.00054883528
0.00046719205
0.0013325509
0.00081477005
0.0005594045
0.00018775516
0.00012163346
0.00013379289
0.0005336288
0.00054586432
0.00053475304
0.00011449479
0.00021579093
0.0005278855
0.0013187983
0.00044857042
0.00054103375
0.00052050929
0.00029816729
0.00036356527
0.00041832708
0.0002013842
0.00018602596
0.00025265223
0.0011417285
0.001094412
0.00097389614
0.00070681572
0.000924813
0.00082793622
0.00019778666
0.00034252468
0.00027210387
0.00047033847
0.00050867089
0.00054528715
0.0005462856
0.00053575592
0.00047816168
0.00052570293
0.00051258571
0.00038262405
0.0003144551
0.000458782
0.00034674723
0.00034768838
0.00040851229
0.00039340271
0.00036891098
0.00043869846
0.00048555476
0.00054032222
0.00053061109
0.00052139587
0.00045112145
0.00050191872
0.00049046842
0.0006018624
0.00054240181
0.00050898048
0.0011377056
0.00096162227
0.0005275835
0.00053487254
0.00053043971
0.00051066458
0.00052879296
0.00050882261
0.00048055277
0.00041083784
0.00047955905
0.00038245586
0.00043418356
0.000361108
0.00011648391
0.00010868709
0.0001170127
0.00013676416
0.00015063217
0.00014114242
0.00011528311
0.00010538444
0.00011346054
0.00012863937
8.5169677e-05
0.00010489916
0.00026549676
0.00027360741
0.00029181613
0.00012879014
0.00012419838
0.00013217478
0.00010320836
0.0001090533
0.00011122203
0.00011111498
0.00011703642
0.00011061727
9.3983039e-05
0.00010748017
0.00010650056
0.00028081954
0.00032993483
0.00031052597
0.0001643999
0.00016062783
0.00017161984
0.00022314552
0.00025608688
0.00023974028
0.00017490713
0.00019605846
0.0001834032
0.00021018114
0.00020964252
0.00022420016
0.00012972542
0.00015555513
0.00013029688
0.00016716078
0.00017293657
0.00015586118
0.00013405848
0.00015899521
0.00014407036
0.00012832923
0.00014931966
0.00012611834
0.00014412788
0.00011953637
0.00012237171
0.00012581238
0.00011842895
0.00011684155
0.00031474352
0.00035364767
0.00033624471
0.0001790569
0.00021740172
0.00019196058
0.00023358893
0.00022124261
0.00020598864
0.00029576799
0.00031809098
0.00027521719
0.00023780076
0.00029485151
0.00025579481
0.0033804493
0.00092299617
0.00066498707
0.0014147639
0.0067412627
0.0035167191
0.00091179951
0.0010790162
0.008804064
0.009208497
0.0011990597
0.0008439752
0.0011847164
0.00048962847
0.00056736184
0.00057815456
0.00038294562
0.00060645691
9.9153392e-05
4.2739362e-05
0.00012353628
9.0444281e-05
7.5217441e-05
0.00054347419
6.1575843e-05
6.8751633e-05
9.5851954e-05
0.00015843085
0.0011061969
8.9073061e-05
0.00090554271
0.00062273804
0.00010846666
8.8249049e-05
0.00087114159
0.00010779978
0.00015373204
0.00013883754
0.00010643623
0.00015141465
5.5731569e-05
5.9337601e-05
7.7036568e-05
7.500551e-05
6.7669307e-05
7.9904968e-05
0.00010648711
0.00013350413
8.420188e-05
0.00010010649
8.2297804e-05
0.00032683907
0.00045583417
0.00028728754
0.00019000833
9.748267e-05
0.00016454917
0.00070614033
0.0010391006
0.00065195781
0.00050382527
0.00053685935
0.00067937306
0.00055617552
0.00045833935
0.00045709185
0.00039908704
0.00028240438
0.0003268309
0.0014359647
0.0004840375
0.00033415011
0.0012926498
0.00045053613
0.00024284635
0.00020835823
0.00018690523
0.00010356187
0.00017272547
0.00029677783
0.00071544054
0.00019795513
7.153264e-05
9.4470346e-05
0.00051712631
0.0007045575
0.00057581123
9.5534229e-05
0.00018535133
0.00016741052
0.0001391849
9.270535e-05
0.00016059305
0.00068736722
0.00079130078
0.00063557262
0.00030159948
0.00036924547
0.00034479684
0.00042411353
0.00037492726
0.00041303753
0.00043608224
0.00039044949
0.00026223714
0.00025119521
0.00022718454
0.00015318311
0.00017865276
0.00021875696
0.00016942577
0.00019638032
0.00013132744
0.00011236042
8.4548929e-05
0.00012103126
0.00010536676
0.00014574679
0.00014190574
0.00012476919
0.00076733168
0.00081124306
0.00089308051
0.0011852328
0.00092725187
0.0010371037
9.1045392e-05
0.0012910582
0.001112271
0.00080549959
0.00094632461
0.00051052343
0.00049239998
0.00051648744
0.00037326839
0.00035348223
0.00039231907
0.00041274419
0.00046351864
0.00042776509
0.00014893759
0.00019490854
0.00015141085
0.0002616437
0.00031840201
0.00028045474
0.00022751298
0.00019578923
0.00024607048
7.7545816e-05
3.829712e-05
0.000132606
7.1825188e-05
9.9118176e-05
7.0554878e-05
0.00010611616
0.00010206024
0.00010940246
6.1945383e-05
7.0349784e-05
7.23924e-05
6.6119974e-05
9.3053269e-05
8.9026674e-05
0.00010239436
9.2218019e-05
9.8260258e-05
8.9569978e-05
0.00012421629
0.00012531008
0.00010855497
0.00011594858
0.00011683208
0.00010450935
0.00011438145
0.00011218276
6.4555434e-05
7.9242978e-05
7.5569739e-05
7.5458872e-05
8.4072322e-05
7.873338e-05
7.839776e-05
8.3484903e-05
8.6793169e-05
8.8317938e-05
8.9046736e-05
9.3769174e-05
0.00010999008
0.00012689242
0.00012778421
0.00010203636
0.00012480275
0.00012304179
8.7956445e-05
9.9111717e-05
0.00010407211
9.8290576e-05
0.00011537789
0.00011911706
8.9851345e-05
0.00011152849
0.00010763578
4.8967671e-05
8.1861956e-05
7.1745906e-05
5.2786343e-05
0.0001552039
0.00012897308
0.0001300487
0.00011737819
0.00014397199
0.00012123148
0.00014796818
0.00012710572
0.00012450051
8.8246347e-05
9.0080576e-05
8.3467254e-05
0.00010938416
0.00012465161
0.00010411363
9.2714893e-05
0.0001165017
9.8058081e-05
0.00011299884
0.00012620668
0.00010802051
0.00011809556
9.5684814e-05
0.00010171277
0.00014973328
0.00017038673
0.00015070739
6.7484615e-05
0.00014843308
0.00018075046
0.00014476888
0.00013529063
0.00017447452
0.00014020968
0.000114631
0.0001464407
0.000119888
0.00015322555
0.0001302122
0.00012506169
7.8927829e-05
7.2879439e-05
0.0031869632
0.007586437
0.013126901
0.020656971
0.015728091
7.6168263e-05
9.0520138e-05
0.00010771783
0.00015268472
0.00012823913
5.3206997e-05
8.1614068e-05
6.4255672e-05
6.5870677e-05
0.00010300333
4.5822663e-05
5.4392166e-05
9.2605377e-05
3.832691e-05
6.9415028e-05
5.6409693e-05
7.737953e-05
7.808336e-05
8.6249734e-05
9.7067507e-05
0.00012423823
0.00012227376
4.8373612e-05
3.1931634e-05
3.7020074e-05
3.5823446e-05
3.5621499e-05
5.354839e-05
3.5432395e-05
3.7413802e-05
0.00010262106
0.00011644962
0.014044782
0.00052963215
0.00081075895
0.00056633224
0.00094548667
0.00011036726
0.00042360581
0.00074312314
0.00052270224
0.0013780322
0.00087134352
0.0013457448
0.00041417387
0.0015168397
0.0013434702
0.00013207075
6.1733209e-05
6.6639933e-05
8.0635555e-05
9.0206314e-05
8.4342991e-05
9.0262163e-05
8.4974372e-05
7.1206909e-05
0.00080952143
0.00010611784
9.8425493e-05
7.6156926e-05
0.00071382697
9.368237e-05
0.00010793163
0.00018332655
0.00010882461
0.00018255813
0.00029761614
0.00093119758
0.00035344515
0.00056028662
0.001079528
0.00075210492
0.0006292293
0.00091590427
0.00027889925
0.00056355357
0.0010660362
0.0007524745
0.00063201774
0.00023027028
0.00022497271
0.00044392901
0.00023484889
0.0013437515
0.00054078309
0.00045947827
0.001143623
0.00027169376
0.0004135695
0.00022772122
0.00054783405
0.00049630682
0.00014681788
0.0003434835
0.00040187107
0.00064233886
0.0004908246
0.0012996031
0.0011974284
0.00059155864
0.00038468616
0.0012930179
0.0011956746
0.00015854291
0.00017735995
4.4279055e-05
5.6971911e-05
4.7658684e-05
7.157802e-05
7.6318132e-05
5.6889575e-05
6.2985811e-05
8.922854e-05
5.9287929e-05
8.7256526e-05
6.2858809e-05
8.9427448e-05
5.8701355e-05
8.7660283e-05
0.00016947489
0.00014984316
0.00035823254
0.00025025036
0.00078088381
0.00084582541
0.00043206138
0.00041751991
0.00071512523
0.00048780052
0.0012077598
0.00097164868
0.00098664879
0.00073016264
0.00081249253
0.00068789398
0.00076003757
0.00083590613
0.00033725525
0.00039599061
0.0011973111
0.0009623649
0.00098531694
0.0007313029
0.00080663927
0.00068997374
0.00019081089
0.00032157041
0.00020684648
0.0002801398
0.00039027522
0.00035156647
6.7754616e-05
7.1099344e-05
0.00010472249
0.00010788478
0.00010219134
0.00010075837
8.2227904e-05
7.513918e-05
8.821052e-05
9.5634728e-05
0.0001109849
0.00011136876
0.00016335834
0.00015474937
0.00011216319
0.00013158426
0.00071009665
0.00048835078
0.00020623211
0.00017405732
0.0005259758
0.00036786041
0.00049829861
0.00032156498
0.00031633645
0.00019567159
0.00036467964
0.00029301288
0.00020083073
0.00029623563
0.00054963254
0.00037598762
0.00038706297
0.00053499036
0.00032889365
0.00059653867
0.0011579551
0.000552317
0.0011529598
0.00021528619
4.091108e-05
2.7963946e-05
3.0170241e-05
5.0958936e-05
3.4464831e-05
3.2354239e-05
5.4073617e-05
3.6440702e-05
3.8214807e-05
6.2412907e-05
4.1678893e-05
4.2025699e-05
6.1159306e-05
4.0895526e-05
3.9721852e-05
6.2049484e-05
4.1332762e-05
4.1909821e-05
6.0628253e-05
4.0331015e-05
3.8988983e-05
0.0001398739
0.00029652813
0.00071699941
0.00051807423
0.00061416048
0.0010800233
0.00095600971
0.0008959076
0.0007019111
0.00048406901
0.0010724179
0.00095227772
0.00089053572
0.00026247225
0.00025402917
0.00031383568
7.6897706e-05
0.00010775861
0.00010491988
8.2927602e-05
8.9198772e-05
0.0001318817
0.00015823652
0.00016421986
0.00060604937
0.00017143282
0.00036357524
0.0003464758
0.00022905445
0.00025968839
0.00030474236
0.00041739125
0.00048624352
0.0039951946
0.016575495
0.032191901
0.0052132981
0.0058944336
0.0015248474
3.4113616e-05
3.7865282e-05
7.0133601e-05
4.7028935e-05
5.2442455e-05
0.00010433842
2.4816096e-05
2.1213584e-05
5.1391968e-05
5.6733748e-05
4.778749e-05
2.9398279e-05
4.3345636e-05
3.0722581e-05
4.1982252e-05
6.3228723e-05
3.4037898e-05
7.5312132e-05
5.1819898e-05
8.041052e-05
5.8118408e-05
0.00022859264
0.00017685475
7.2677896e-05
8.5793401e-05
0.0001290766
0.00018813087
8.1282238e-05
0.00014848368
2.7690389e-05
4.6480806e-05
6.1884727e-05
9.2380269e-05
0.00015374736
2.2171212e-05
4.2200355e-05
5.7569585e-05
1.6793144e-05
1.3136332e-05
5.8461114e-05
6.4587126e-05
0.00012970327
9.6803332e-05
3.4433962e-05
5.2340303e-05
2.3023232e-05
3.4963472e-05
3.1373003e-05
3.9146258e-05
3.7953827e-05
4.1052312e-05
6.654029e-05
6.6449058e-05
4.6436739e-05
5.8853606e-05
0.00027949421
0.00022212752
0.00020406437
0.00021042945
6.5154266e-05
9.1607384e-05
7.5192496e-05
9.8144084e-05
0.00010924579
0.00011248639
0.00015598304
0.00018360145
9.0567805e-05
0.00010357081
7.6169224e-05
7.2988865e-05
6.383493e-05
6.6270666e-05
0.00016985975
0.00012460309
8.7301212e-05
0.00011059197
0.00013212772
0.00018032829
2.1745663e-06
5.1384448e-05
7.2483304e-05
0.00012519598
3.7618312e-05
2.5780151e-05
2.3646784e-05
2.581391e-05
2.8489014e-05
1.9416942e-05
2.1557731e-05
4.6006007e-05
5.8976848e-05
5.2436127e-05
0.00026979161
0.00024570672
8.1391271e-05
8.5024367e-05
9.6240409e-05
0.00015219127
0.00011669484
7.9775421e-05
8.8514648e-05
0.00014149905
0.00012322178
0.00018223381
0.020603848
0.0078870487
0.015312295
0.015700586
0.011509817
0.013330947
0.0047267094
0.0054666386
0.0082680751
0.0052481233
0.0014407704
0.0079055125
0.010953325
0.013025743
0.0038563617
0.0079503182
0.0085540565
0.0031709429
0.00431912
0.0044094158
0.00073541269
0.00081668024
0.0031689898
0.0029619541
0.00087797231
0.00061930791
0.0020573257
0.0012244126
0.00065917311
0.011178977
0.0040271831
0.012515768
0.0015559794
0.0023227331
0.0051800207
0.0052877772
0.006835131
0.0052468253
0.0044102971
0.0011964357
0.011863709
0.00940981
0.0014202901
0.0073811826
0.0019544355
0.0038764136
0.0078022839
0.0092203071
0.011207693
0.0067302333
0.0051082576
0.0026263297
0.0035511503
0.00037051284
0.0022017561
0.00096924005
0.00039562139
0.0018509575
0.0015461593
0.00043995147
0.00042391856
0.002674223
0.00051090304
0.00027075361
0.00043950741
0.00041213611
0.0035358159
0.00016210954
0.00025749764
0.00016367149
0.00015281806
0.00014079464
0.00022404182
1.6699077e-05
9.4687677e-05
9.2549978e-05
9.2101327e-05
9.686145e-05
9.482171e-05
9.70079e-05
9.4682997e-05
9.1558719e-05
9.380119e-05
9.1528435e-05
9.2927275e-05
9.4975395e-05
7.6625149e-05
7.2680615e-05
7.08342e-05
7.0253785e-05
6.7241833e-05
9.72616e-05
9.0739785e-05
9.6937046e-05
9.9240943e-05
9.6232819e-05
8.7613115e-05
0.000102129
9.8221186e-05
0.00010323039
0.00010392122
9.9540712e-05
0.00010423601
0.00044130855
6.6538728e-05
6.2846208e-05
3.9026868e-05
6.0967793e-05
5.1119889e-05
0.00044227334
0.00014877988
0.00014336077
0.00016562462
0.00015408738
9.9729078e-05
9.9501587e-05
9.4111374e-05
9.1553174e-05
0.00015438891
0.00016294638
9.2086524e-05
9.1359311e-05
0.00039931222
0.00034031309
0.00016316869
0.00036887971
0.00015420992
0.00030478317
0.00033882991
0.00016542109
0.00016298949
0.00030592634
8.9700562e-05
9.9334527e-05
9.3406723e-05
9.7437432e-05
9.2442065e-05
9.7900134e-05
9.6642366e-05
8.7852639e-05
9.4985191e-05
0.0003674864
0.00015742225
9.4566893e-05
9.8870639e-05
8.646446e-05
9.5407588e-05
9.5934219e-05
8.7788202e-05
8.6280972e-05
8.1390603e-05
8.1677717e-05
8.0835337e-05
9.4236691e-05
9.2515024e-05
9.3497404e-05
9.037283e-05
0.00039662991
8.7335552e-05
0.00036258411
0.0001629998
9.6142532e-05
8.5934616e-05
0.00021189475
0.00013827296
0.00015661781
0.00013788217
8.5011329e-05
9.2377394e-05
0.00034965158
9.2803916e-05
9.1640859e-05
0.00021568463
0.00014988669
0.00014579326
0.00014156724
0.0001400715
9.3675145e-05
7.7768632e-05
0.0001161914
0.00014105842
9.6070123e-05
9.7034998e-05
0.00013710013
8.4361555e-05
8.7025504e-05
9.638482e-05
9.7938928e-05
9.2636517e-05
9.4623728e-05
9.8099652e-05
9.6806651e-05
9.5622856e-05
9.5737567e-05
8.9175816e-05
9.0818833e-05
9.5045426e-05
9.337537e-05
0.00036166983
9.6238169e-05
0.00010367605
0.00010001148
0.00010308318
0.00010569667
0.00010058302
0.00010328673
8.4320205e-05
9.0776408e-05
9.5907669e-05
9.3948072e-05
9.3896629e-05
9.704983e-05
7.5680221e-05
8.8848433e-05
7.4338642e-05
8.4506332e-05
8.2754467e-05
6.9017775e-05
0.00010494437
7.889639e-05
6.7622218e-05
8.0820084e-05
9.8672116e-05
9.8149315e-05
9.092151e-05
9.3321275e-05
9.6323939e-05
9.5307661e-05
9.9266768e-05
9.8754707e-05
9.7134432e-05
9.5091251e-05
8.7433171e-05
8.3890674e-05
9.994046e-05
0.00010042424
9.8769588e-05
9.9018749e-05
0.00010224629
0.00010392277
0.00010268702
0.00010160988
0.00010050469
9.9447249e-05
0.00010289
0.0001042463
0.00040948869
0.00042334185
6.5671031e-05
6.4425728e-05
2.3662541e-05
5.877035e-05
5.598379e-05
0.00041098721
0.00042204529
8.8333935e-05
0.00015996201
9.0153795e-05
9.501266e-05
0.00016428212
8.43545e-05
0.00015699381
8.3947421e-05
9.2844569e-05
9.2995854e-05
0.00016543366
9.0857573e-05
0.0001611335
9.1430145e-05
0.00010079137
9.8685171e-05
0.00010325184
9.6831085e-05
0.00013547717
8.7571934e-05
9.6064828e-05
9.0766542e-05
9.5329455e-05
0.00016427478
0.0061246822
0.0037837079
0.0027547262
0.00030210608
0.00015217158
9.5370267e-05
7.7126117e-05
7.4311879e-05
7.572817e-05
5.0176503e-05
5.4712605e-05
6.7796153e-05
6.4997981e-05
7.0399729e-05
0.00042592079
0.00043329772
6.7650432e-05
6.4740136e-05
9.3045193e-05
4.3890199e-05
5.9041437e-05
6.7002152e-05
6.5907562e-05
4.7844977e-05
5.6538533e-05
7.6224554e-05
7.3271224e-05
0.00016281712
0.00010027538
0.00015084357
8.9570304e-05
8.9847251e-05
8.6361934e-05
5.3942756e-05
5.2621263e-05
6.2850767e-05
0.00014639836
0.0001002698
4.6760176e-05
9.1929391e-05
9.7340114e-05
4.3460272e-05
8.9449473e-05
8.4849695e-05
8.9057537e-05
5.1325145e-05
6.8684706e-05
8.2352291e-05
7.2618076e-05
0.00034054782
0.0001640887
0.00014274575
0.00034757485
0.00016403716
0.0001620653
8.899096e-05
5.5550968e-05
7.4095553e-05
0.00034563427
9.2267295e-05
0.0003125145
0.00014377551
9.1100748e-05
8.987834e-05
8.8541418e-05
7.8294525e-05
0.00016053609
9.4093452e-05
9.6258758e-05
9.6425953e-05
8.9396465e-05
7.7149688e-05
7.2487759e-05
8.6809499e-05
7.6681962e-05
8.8197053e-05
4.3326131e-05
5.9406609e-05
6.4399807e-05
5.850022e-05
7.030209e-05
7.9446773e-05
7.6201124e-05
6.1909987e-05
6.0953305e-05
7.2551493e-05
2.0443774e-05
3.8489082e-05
0.00039500955
0.00038695099
0.00040557707
0.00039874244
5.8563495e-05
6.4179879e-05
5.1016024e-05
6.3192037e-05
9.390834e-05
9.4636872e-05
3.590921e-05
6.1279122e-05
4.9090667e-05
6.704858e-05
6.6679355e-05
5.0943617e-05
5.3827409e-05
8.886309e-05
8.1168639e-05
6.9512398e-05
7.8075704e-05
9.1395245e-05
0.00016449892
9.2369418e-05
9.4046551e-05
9.1383001e-05
0.00015917984
9.1531834e-05
8.5626714e-05
8.5525774e-05
9.2548204e-05
8.2095588e-05
8.2441667e-05
9.0560752e-05
8.8971812e-05
0.021786064
0.0067451013
0.013199459
0.01098342
0.011239944
0.0059471439
0.0061061927
0.0038831188
0.0044085913
0.0061907944
0.00036874746
0.00095262242
0.0037264142
0.00051086651
0.002274808
0.0021932947
0.0021052566
0.0035205422
0.00083112152
0.0012237268
0.00080452069
0.0008158145
0.00063201538
0.0037327098
0.00050373272
0.0012739696
0.004187341
0.0019162402
0.0023154949
0.0059839823
0.00093559218
0.0010926599
0.000585304
0.001282952
0.0028687007
0.0017847954
0.0089147568
)


2890
(
2.1295454e-05
0.0017406715
0.00046809614
0.0013089755
0.00076262349
4.1518604e-07
3.3067482e-07
2.4864652e-07
2.6044697e-07
2.3753484e-07
3.0325931e-07
3.2034397e-07
2.8713885e-07
2.7312391e-07
2.5713746e-07
3.3763762e-07
3.3913596e-07
2.271159e-07
3.7684928e-07
2.8228069e-07
3.7157736e-07
2.064632e-07
2.1739507e-07
3.0705028e-07
2.0543637e-07
3.1776287e-07
2.6195466e-07
3.3536007e-07
2.6394673e-07
2.9476399e-07
3.4808107e-07
4.0088306e-07
3.6878567e-07
3.8704492e-07
3.7613395e-07
2.4622704e-07
1.7575992e-07
1.8685559e-07
2.0955716e-07
2.0261259e-07
2.5931545e-07
1.8649118e-07
1.895682e-07
1.9182361e-07
3.6224991e-07
3.9920278e-07
3.8437359e-07
0.00049599814
2.8226858e-05
0.00013884863
1.0210709e-05