/*--------------------------------*- C++ -*----------------------------------*\
  =========                 |
  \\      /  F ield         | OpenFOAM: The Open Source CFD Toolbox
   \\    /   O peration     | Website:  https://openfoam.org
    \\  /    A nd           | Version:  8
     \\/     M anipulation  |
\*---------------------------------------------------------------------------*/
/*   Windows 32 and 64 bit porting by blueCAPE: http://www.bluecape.com.pt   *\
|  Based on Windows porting (2.0.x v4) by Symscape: http://www.symscape.com   |
\*---------------------------------------------------------------------------*/
FoamFile
{
    version     2.0;
    format      ascii;
    class       scalarListList;
    location    "constant/vegetation";
    object      kcLAIboundary;
}
// * * * * * * * * * * * * * * * * * * * * * * * * * * * * * * * * * * * * * //


5
(

48
(
0
0
0
0
0
0
0.31142968
0.47405843
0.93714536
0.47655155
0.30746037
0.46931709
1.1498791
0.95577273
0.69348724
0.40597934
0.64505044
2.741115
2.7678391
0.44536983
1.5490907
1.6939884
0.64133856
0.19098787
0.60090379
0.56391238
0.19566642
0.45424446
0.42587666
0.58896751
1.0554133
0.91931075
0.50960567
0.29905375
0.21279705
0.55712696
0.36824993
0.84337595
0.69771254
0.24828947
0.53644344
0.60854057
0.51465763
0.24479504
0.30166055
0.136428
0.3494695
0.36849638
)


48
(
0
0
0
0
0
0
0.36907264
0.25423508
0.47323247
0.39876469
0.26262171
0.5387266
1.1963681
0.62875315
0.61702905
0.45616593
0.79675114
2.2078033
1.6556588
0.55321314
0.79321873
1.6252717
0.37455686
0.20556079
0.58240464
0.70741429
0.25579506
0.50954876
0.46581755
0.65373156
0.40299871
0.35844961
0.34064274
0.2802743
0.25566205
0.5515939
0.29388819
0.82778888
0.60976182
0.16334942
0.42943742
0.27154394
0.45268539
0.26448145
0.2736321
0.13700452
0.37166159
0.39213829
)


48
(
0
0
0
0
0
0
0.38733264
0.21983211
0.4490801
0.21903987
0.11122319
0.6372998
0.79374761
0.45164146
0.49569528
0.46154893
0.90660155
1.2222439
1.1802512
0.68285355
0.4594009
0.93945777
0.29355026
0.21061671
0.52655628
0.83002332
0.37376237
0.56820707
0.50653676
0.75396804
0.44543562
0.23086918
0.23760086
0.2828157
0.30430119
0.54404582
0.28870028
0.94941614
0.58984271
0.13448847
0.34920371
0.20800244
0.38437343
0.22616463
0.30698007
0.12559111
0.31012732
0.31545222
)


48
(
0
0
0
0
0
0
0.44572812
0.34425131
1.8267389
0.16305094
0.14050025
0.70832722
0.44048208
0.28759537
0.36173448
0.42479137
0.94040924
1.2745775
2.675464
0.89503725
0.58880619
0.6027567
1.119542
0.22653283
0.50515847
0.97219408
0.40490563
0.72516498
0.58203535
0.83900893
2.1349453
0.31522716
0.19411457
0.3659815
0.36015264
0.62018739
0.25217353
0.84538857
0.50130501
0.14697228
0.26479326
0.37728865
0.38706041
0.24637965
0.27710122
0.13187437
0.30236379
0.33586283
)


48
(
0
0
0
0
0
0
0.65466466
1.8710574
2.720237
0.18456702
0.320846
0.79836282
0.20159249
0.24081928
0.25735139
0.55286544
0.95048486
1.2381722
3.084138
1.0915435
1.1077352
0.33238759
2.3952381
0.25645915
0.45352627
1.265364
0.57236074
1.0032898
0.66030366
1.0002792
2.9679748
1.333577
0.79003657
0.4094993
0.54225173
0.77183836
0.26591305
1.604666
0.83227345
0.36479294
0.22725268
2.1091455
0.41689536
0.25896495
0.35808567
0.18001477
0.25594562
0.30368294
)

)


// ************************************************************************* //
