/*--------------------------------*- C++ -*----------------------------------*\
  =========                 |
  \\      /  F ield         | OpenFOAM: The Open Source CFD Toolbox
   \\    /   O peration     | Website:  https://openfoam.org
    \\  /    A nd           | Version:  8
     \\/     M anipulation  |
\*---------------------------------------------------------------------------*/
/*   Windows 32 and 64 bit porting by blueCAPE: http://www.bluecape.com.pt   *\
|  Based on Windows porting (2.0.x v4) by Symscape: http://www.symscape.com   |
\*---------------------------------------------------------------------------*/
FoamFile
{
    version     2.0;
    format      ascii;
    class       scalarListList;
    location    "constant/vegetation";
    object      skyViewCoeff;
}
// * * * * * * * * * * * * * * * * * * * * * * * * * * * * * * * * * * * * * //


5
(

48
(
0
0
0
0
0
0
135.27353
99.437154
109.18101
117.06644
115.34651
124.45439
96.607511
98.764822
114.68456
129.0651
115.0988
117.36517
136.95105
113.61128
103.11934
99.631261
100.21909
168.8987
117.46167
123.30764
151.02946
129.94741
110.537
94.203666
119.62084
96.627581
100.02397
147.65785
154.78546
94.98306
112.53938
109.04194
95.115868
110.18525
119.49986
98.467217
109.93646
143.00516
138.18512
172.15052
133.95691
136.48845
)


48
(
0
0
0
0
0
0
163.33559
120.06507
131.83027
141.3515
139.27477
150.27206
116.64843
119.25327
138.4755
155.83925
138.97568
141.7122
165.36111
137.17958
124.51111
120.29945
121.00922
203.93619
141.82872
148.88742
182.36004
156.90458
133.46755
113.74592
144.4358
116.67266
120.77362
178.289
186.89521
114.68699
135.88532
131.66234
114.84735
133.04283
144.28972
118.89393
132.74243
172.67113
166.85118
207.8626
161.74585
164.80255
)


48
(
0
0
0
0
0
0
138.15169
101.55284
111.50401
119.55722
117.80069
127.10236
98.66299
100.8662
117.12465
131.81117
117.54771
119.8623
139.8649
116.02854
105.31337
101.75107
102.35141
172.49229
119.96085
125.93121
154.24285
132.71225
112.88885
96.207999
122.16596
98.683487
102.15214
150.79951
158.07876
97.003976
114.93384
111.36198
97.13961
112.52962
122.04241
100.56226
112.27553
146.04782
141.12522
175.8133
136.80706
139.39246
)


48
(
0
0
0
0
0
0
107.21147
78.809234
86.531762
92.781383
91.418243
98.636727
76.566592
78.276375
90.893612
102.29096
91.221924
93.018137
108.54099
90.042982
81.72756
78.963074
79.428961
133.8612
93.094619
97.727863
119.69888
102.99023
87.606453
74.661416
94.805878
76.582498
79.274315
117.0267
122.67571
75.279127
89.193448
86.421535
75.384385
87.327673
94.709992
78.040507
87.130492
113.3392
109.51905
136.43845
106.16798
108.17436
)


48
(
0
0
0
0
0
0
76.990785
56.594551
62.140258
66.628241
65.649342
70.833086
54.984062
56.211893
65.272594
73.457266
65.508362
66.79826
77.945545
64.661739
58.690261
56.705026
57.039589
96.128513
66.853183
70.180412
85.958257
73.959429
62.912017
53.615916
68.082074
54.995485
56.928535
84.039309
88.095978
54.059508
64.051671
62.061103
54.135095
62.711819
68.013216
56.042512
62.570219
81.391235
78.647911
97.979288
76.241434
77.682259
)

)


// ************************************************************************* //
