/*--------------------------------*- C++ -*----------------------------------*\
  =========                 |
  \\      /  F ield         | OpenFOAM: The Open Source CFD Toolbox
   \\    /   O peration     | Website:  https://openfoam.org
    \\  /    A nd           | Version:  8
     \\/     M anipulation  |
\*---------------------------------------------------------------------------*/
/*   Windows 32 and 64 bit porting by blueCAPE: http://www.bluecape.com.pt   *\
|  Based on Windows porting (2.0.x v4) by Symscape: http://www.symscape.com   |
\*---------------------------------------------------------------------------*/
FoamFile
{
    version     2.0;
    format      ascii;
    class       scalarListList;
    location    "constant/vegetation";
    object      solarLoadFineFaces;
}
// * * * * * * * * * * * * * * * * * * * * * * * * * * * * * * * * * * * * * //


5
(

413
(
482.54852
117.84623
0
146.46683
233.97457
275.39214
10.638785
473.52628
0
0
0
0
15.848087
576.51808
534.74757
5.3205871
0
0
303.27953
377.16976
0
0
0
0
0
0
0
6.5796378
3.7569121
24.515322
185.84649
218.55214
26.256368
715.7362
559.70071
572.93178
521.41263
27.509345
0.37675952
275.73275
165.92794
493.52463
22.295462
40.523829
266.39616
268.98891
281.83899
282.36581
378.00385
0
0
0
0
0
0
0
45.904726
91.224038
0
0
0
0
0
0
147.75847
183.13418
521.73694
445.92812
645.67888
197.20501
607.27024
636.30056
690.1204
357.58479
253.79362
299.89375
538.96061
614.81563
644.37072
125.98637
254.55242
268.71016
135.06449
303.58728
299.29585
304.11408
303.69767
0
0
0
0
0
0
0
0
0
69.032092
0
0
19.533279
6.4411074
583.65754
470.56897
466.90681
423.6422
436.47003
446.27619
395.50129
450.202
433.22268
0
0
0
0
0
0
0
0
128.57014
138.20704
137.2115
7.2118204
270.67631
281.7947
292.69836
229.03865
0
0
0
0
0
0
0
0
0
0
0
0
0
0
0
0
0
0
110.61131
0
0
17.685551
0
0
0
5.5004439
47.290404
235.03425
286.09518
280.93021
134.06175
36.342782
252.14635
232.16279
157.68806
107.32172
3.1188791
4.4063747
4.3427124
198.16026
209.23151
66.892557
426.05448
247.01826
229.08768
465.02489
659.24711
570.83108
134.00442
74.629887
205.55384
386.15259
260.4376
135.48619
71.580821
562.97249
706.30802
635.88362
683.88165
716.83649
526.20523
454.17054
445.37835
542.98654
371.26322
453.65266
475.8419
388.67602
354.26492
671.81652
589.44985
696.52632
642.79682
692.84393
633.07759
698.23561
664.06197
726.08029
603.79087
662.28715
522.59728
562.32618
622.76478
598.71451
427.88421
544.5251
336.06822
393.62432
465.7366
375.52219
362.64576
388.67777
0.1112358
15.989273
58.256326
222.4651
212.67617
90.460764
407.05052
343.18626
205.15866
490.51676
358.45251
342.40617
357.81307
292.89964
288.57087
436.98011
440.04169
260.16094
246.33708
183.60775
218.39009
325.40031
408.10714
463.41208
586.03597
569.45442
574.35822
1.5011594
87.138734
260.21802
7.7386254
3.8980848
0
373.26177
2.8988179
160.08269
293.63424
146.16974
0.87953564
0
0
0
197.08984
67.256168
538.32982
589.22354
471.81063
583.17754
423.16458
433.70901
418.04898
1.2820014
62.693713
219.13544
232.43152
345.2127
476.21111
536.19064
372.0573
316.08797
103.07969
389.36197
500.19117
352.27808
534.85603
384.16434
4.9996083
62.567591
0
26.817633
193.39525
336.97858
530.01521
403.08395
160.31323
266.76977
730.94443
324.07051
706.14461
477.78131
284.54267
333.66508
370.96793
286.92019
161.58674
156.69352
288.83194
291.75875
318.91423
392.02454
391.69564
567.51128
570.4147
579.16674
455.20594
448.71304
0
0
0
0
0
0
157.253
160.52824
156.30311
2.4125946
164.02387
4.0447265
143.87948
238.99094
286.09507
158.50348
146.33562
0.88082215
232.32746
270.66257
0
0
0
0
0
0
0
0
0
0
28.595266
0
0
0
0
77.827003
143.13865
141.20912
80.541295
40.623956
314.38878
254.43952
172.56456
231.9337
259.91293
228.26495
414.52003
34.405467
14.604197
214.41787
31.501711
266.33146
425.18873
201.24414
399.60125
402.80861
463.36663
102.97411
332.57946
579.12932
675.7936
669.27392
709.45135
751.22076
723.406
726.00467
612.06694
655.52433
652.86487
540.74743
588.04399
424.5522
395.25445
425.67806
733.81259
732.10217
719.30534
495.71084
751.55236
712.57274
476.71857
528.0249
457.883
447.35977
428.36275
447.37905
374.93141
492.6271
391.63997
4.4427316
33.08276
182.84758
206.06665
21.979296
199.6441
247.85286
273.2977
189.10592
425.51795
)


413
(
296.81915
257.19793
69.214166
280.97979
347.24911
380.52562
45.85777
280.03749
0
0
0
0
12.807288
508.42702
374.04788
0
0
0
129.14762
209.19412
0
0
0
149.85247
0
0
119.48685
166.73037
164.36617
41.108603
110.11337
233.25052
104.94795
616.78846
542.37201
542.46755
356.55212
43.727001
38.13677
99.976971
60.206768
298.96997
0
41.09866
169.66023
172.01213
198.4078
198.51646
278.29663
0
50.561629
0
30.73494
18.593827
6.5696223
39.85
186.36774
235.47169
0
0
0
11.869502
23.223356
49.714984
282.00651
306.75836
358.69431
349.47661
513.06681
303.16603
425.64429
445.13317
538.78342
438.86134
364.24731
397.62464
370.08246
430.54758
506.65471
54.735964
159.4804
187.6727
78.554572
257.24819
261.43876
257.539
266.6063
0
0
0
0
0
0
0
0
0
43.543896
0
0
18.932742
20.230123
481.69598
424.8495
386.28592
314.54025
322.71803
369.70797
330.26789
374.59887
385.77451
0
0
0
0
0
0
0
0
56.532753
81.347538
80.413263
13.824246
324.65487
334.62482
344.02967
323.75919
0
0
0
0
0
0
0
0
0
0
0
0
12.478957
41.919527
137.66331
0
14.325705
0
250.79007
65.523712
100.33518
98.854599
100.65254
0
82.347264
165.8313
195.78975
283.90127
339.35886
334.09055
271.10711
186.62163
319.24124
313.5608
252.64319
227.53862
27.313496
3.3805383
25.898924
153.42858
196.29932
115.26933
366.73609
262.95928
214.87589
398.9415
553.34298
532.44425
227.6206
140.15121
309.86646
451.83149
362.09547
228.53289
138.21195
466.9401
550.15339
451.40627
599.91762
607.03277
554.16472
433.70548
427.28401
553.15536
448.10186
506.66764
522.24279
449.45775
425.92162
520.6102
488.42987
570.64783
452.01387
535.33964
450.75398
618.63025
559.50474
624.00778
558.12236
629.14776
550.05635
553.39386
607.69563
594.51681
449.15986
551.58745
425.54477
460.37925
515.80703
450.52975
429.73397
449.4591
0
20.935143
74.807739
238.95387
198.19473
130.33069
271.60861
270.66269
191.06715
463.25744
306.64157
401.14934
210.49605
120.14116
108.61767
240.64131
259.87108
82.269622
100.39739
67.965931
65.25443
332.62884
398.97586
412.48345
522.35291
536.29281
504.00515
50.717089
24.287672
87.909553
0
0
0
222.71535
32.831807
193.50276
304.36907
183.43209
58.22069
32.174851
0
0
252.72549
109.87852
371.51501
524.56716
518.54582
564.93607
476.13445
414.68206
441.57326
52.737973
15.42002
72.94204
94.530452
150.00787
280.89961
334.28424
170.04763
127.15226
24.786053
186.76924
302.97325
154.79932
332.53997
182.17654
0
199.36496
55.947571
95.229816
314.91713
379.08689
529.41119
459.52543
275.64154
368.3191
574.66202
416.46981
550.49826
374.33862
333.39481
392.9081
244.62018
243.57618
151.11244
137.0023
255.22028
301.1981
324.5589
252.89996
253.46045
435.39377
431.79788
479.44412
410.20145
403.2966
0
0
0
0
0
0
138.10505
149.37209
136.78735
27.306202
150.58637
0.41532091
220.97387
306.32147
339.35755
194.38583
223.99064
58.217205
328.15009
357.19916
12.266105
0
0
0
2.2042253
0
64.408509
84.882081
91.792509
52.173188
172.75676
97.150715
0
0
53.14597
203.35187
231.58765
227.58129
204.74961
190.46668
320.48637
331.81056
298.58637
329.2472
351.37827
327.25015
441.98732
57.446636
1.8878966
159.75249
53.243603
306.08885
249.87593
115.42879
271.23156
314.92517
440.17218
202.66359
390.8206
437.78031
522.70962
554.09675
627.90398
625.17729
649.83582
596.29858
599.22407
626.79926
615.98899
549.39434
587.48884
452.20519
454.87071
452.82647
577.59822
618.55244
646.15078
419.77756
622.8887
588.32787
523.13899
539.75207
467.53457
425.3228
449.62434
425.33753
448.70522
532.0595
451.89989
5.2631219
16.121736
98.064593
111.72176
0
150.73668
264.46098
314.86441
141.86661
404.36895
)


413
(
159.26025
409.77317
231.62338
430.16667
486.91832
515.12554
68.901485
134.88842
0
66.454205
0
1.529816
65.593701
495.16275
265.20834
0
0
0
8.8001861
75.863457
67.851619
0
0
311.8483
0
2.7470945
283.18397
325.62427
323.40158
49.572964
66.314497
282.56472
196.57282
599.2009
579.45433
567.52783
242.27876
58.852302
63.228348
0
0
162.31507
0
0
91.392085
93.795783
134.75282
134.51265
209.62577
99.412521
82.491566
10.173942
113.91609
136.7031
172.57229
99.155892
335.84536
390.23122
70.185361
144.01253
26.7915
159.73809
185.74646
199.92244
431.07863
446.98393
259.55658
311.45303
456.89553
435.23849
314.4239
324.55422
466.81436
556.23863
501.74708
525.57336
266.40592
316.98867
445.15848
6.6102124
81.522338
124.89142
25.083356
232.60377
244.76239
232.72028
251.20608
0
0
0
0
6.0554407
0
0
0
0
16.256287
2.8607441
0
13.060471
63.86593
435.41893
420.76613
346.76422
241.97734
247.12981
331.73425
297.52951
338.05261
375.34904
0
0
0
0
0
0
0
0
5.993963
27.874273
26.892268
8.8501576
398.74311
408.90966
418.11783
436.56967
0
66.903878
0
0
0
0
0
0
0
0
0
5.9064626
123.18187
202.48461
300.34858
0
120.2099
101.06976
403.76749
225.19346
235.76501
231.80848
232.06101
0
211.07623
324.78836
345.39681
348.15877
414.65401
408.61554
421.43139
336.77145
404.93521
412.09266
356.23361
352.38286
44.598972
1.6602748
42.598792
142.18704
217.728
181.98426
363.83078
316.24592
237.05008
393.04539
525.11547
562.65774
343.44778
224.06413
441.15812
562.60562
494.73551
343.97348
222.87928
423.9244
467.90806
333.851
585.39508
578.94433
637.31002
453.35406
448.25687
617.79638
562.32797
609.75233
618.56318
547.13786
530.80094
437.99156
443.82282
515.88782
331.65578
449.81262
334.60823
610.8964
532.98334
603.8839
583.94641
666.34085
631.59033
610.29465
661.82683
656.9902
509.03483
612.96645
550.71885
572.3118
616.61254
563.18236
530.63791
547.13903
0
21.619697
109.67408
290.38227
218.44837
191.22012
189.8299
246.47439
210.9426
497.45261
304.60785
503.04185
94.098218
13.272701
0
89.205926
133.95348
0
0
0
0
364.75115
424.48171
402.24416
514.82964
558.03408
488.16665
0
0
0
0
0
0
104.99329
59.451467
232.80537
336.23987
225.05273
106.43999
132.02455
2.7384628
0
319.42477
171.0753
257.43488
516.47648
617.45221
604.52214
578.47559
433.22322
502.51928
0
0
0
4.5175098
0
134.57454
192.04082
9.0163689
22.616595
0
26.829252
163.79901
0.7963422
189.09668
21.830263
0
347.10452
210.11704
226.97348
454.22179
465.39679
591.69601
563.63713
412.8806
501.16546
499.51753
543.94322
475.04857
332.36277
421.39811
494.56651
149.47855
219.99775
146.12107
122.25131
241.58018
331.51321
354.26329
147.97152
149.33628
357.63154
348.14302
434.81435
404.93816
396.81671
0
0
0
0
0
0
123.95823
143.57864
122.16768
47.321965
142.90267
0.80997884
303.74344
390.58212
414.6514
236.02974
307.65327
106.43566
442.66127
466.66021
112.16883
114.01065
9.8738358
127.65915
145.93595
0
224.21244
216.88717
237.2865
201.05231
323.93076
228.4844
0
1.0550973
184.73589
330.23499
326.33505
319.87023
330.51527
340.7379
350.10656
428.90419
440.09271
445.39093
464.88148
444.77251
506.66853
96.184485
3.1329809
140.25693
90.403004
383.92149
127.71953
63.007888
196.0104
281.27714
475.89702
321.22407
491.49354
352.58137
438.87241
506.02422
620.03811
582.05216
654.05244
542.29693
655.06805
667.9291
646.62203
611.94059
652.7157
518.45464
552.23987
518.68809
502.47513
587.53128
649.49501
407.0064
577.09307
537.56103
621.45901
612.88446
533.8142
442.4924
509.54901
442.50491
559.63521
622.6559
549.44287
6.1592874
15.122868
44.716319
51.089024
0
135.47081
318.47082
395.03934
127.16899
438.67488
)


413
(
0.70149935
495.79523
56.50046
508.31836
549.47284
567.23633
0
17.965105
0
5.5738556
0
69.815644
117.58714
400.9285
114.80178
0
0
0
0
44.743643
5.6552519
0
0
421.2451
22.574171
116.81702
398.40053
428.09744
426.33425
0
25.173354
297.93064
264.83877
495.89418
522.42209
500.39633
90.235289
56.64405
0
0
0
10.358936
0
0
4.1890425
0
43.10338
42.574421
102.69177
28.882049
36.937113
19.374875
41.249832
44.480354
49.17458
39.200173
433.32824
481.45307
23.075269
32.59257
20.170568
32.269471
50.19943
36.623152
508.99241
512.06024
131.93334
237.51746
340.24538
501.68544
164.33181
161.14954
331.6806
583.45294
558.58598
567.92443
132.84678
163.77666
325.06205
0
0
35.472827
0
163.46858
181.43831
163.4039
188.17665
0
0
0
0
65.624094
32.808033
0
0
0
40.21797
74.579338
42.15647
0
107.49147
318.40326
344.94614
247.75432
126.95832
128.64074
236.22013
211.63584
243.00105
299.70012
0
0
0
0
0
0
0
0
0
16.6155
0
3.795541
401.71071
410.67249
418.42219
473.52055
0
5.4434162
0
0
0
0
0
0
0
0
0
109.52766
246.74875
329.80596
66.267266
42.536041
243.93958
192.56063
491.41422
348.33148
337.36611
331.86736
330.72933
0
296.23038
68.792402
434.03635
348.43807
416.63241
410.6574
501.94276
427.18127
418.6268
437.7409
394.73913
413.31074
0
11.462962
0
121.25402
216.64687
229.3625
316.01991
330.05572
233.67009
337.54822
424.94777
513.66612
410.76414
280.97323
505.92944
588.01571
550.94943
410.85916
280.67006
311.37867
315.9585
168.57969
479.19633
468.77473
620.12059
395.76
392.61663
583.32874
585.40802
618.4873
617.0662
554.32477
547.42883
288.68957
327.25029
381.61627
166.58715
296.97228
170.17044
508.23348
433.12781
496.93154
526.89373
600.87208
613.0325
578.15586
616.31018
620.31301
483.11208
575.77754
588.08087
596.7021
621.51871
584.42664
543.16334
554.32561
0
11.28992
138.05357
306.51958
216.1273
231.71598
91.447272
196.59903
209.42661
463.53935
267.1683
531.44083
0
0
0
50.540919
0.96738491
0
0
0
0
331.29227
376.41272
323.10888
423.46088
488.89864
392.42748
0
0
0
0
0
0
0
64.764715
225.04019
306.52142
220.66984
125.89466
217.66509
116.8092
0
326.16818
214.95501
103.59757
424.3702
621.12913
546.95822
593.6232
377.27516
478.50207
0
0
0
0
0
19.425867
27.562306
0
126.34297
0
91.345241
8.6505782
103.22689
23.299486
94.874632
0
441.3366
51.957877
312.96987
517.38932
485.95669
568.05902
583.16216
487.47298
556.26624
353.93388
585.17131
334.47513
251.09378
450.78298
524.21092
26.923312
153.66662
108.13693
78.428803
181.59015
300.95096
319.92446
16.870312
18.759335
222.32898
208.85677
319.37915
330.14043
321.97026
0
0
0
0
0
0
80.462295
105.19759
78.48259
48.022936
102.81236
6.9934897
328.68461
404.81793
416.62889
230.08466
332.9307
125.89014
480.56415
496.17036
200.85292
239.12691
154.26191
252.47595
268.37971
0
347.60121
318.42086
347.25224
319.43714
424.71846
327.64048
0
0
276.75786
396.3833
360.09101
352.06489
395.45541
430.75711
316.26657
450.80692
507.46434
484.63039
498.81539
485.53152
485.79273
130.28863
15.439866
111.57991
123.8862
409.96435
1.720929
13.856413
103.29548
216.53625
447.07319
394.53094
520.77443
211.36867
288.47689
378.68741
516.43237
454.56147
559.41566
406.09532
612.82053
606.25578
576.10236
576.02341
619.58412
497.59849
558.49395
497.41813
356.13405
472.45965
553.91205
342.45922
447.69146
404.46745
623.21811
595.33949
524.16791
383.9803
483.60817
383.98898
579.35378
614.48973
556.2111
1.7436922
23.466051
0
0
0
111.65731
332.61181
421.46449
105.18828
414.66396
)


413
(
0
546.61714
28.727444
550.0768
577.33853
583.70624
0
0
0
87.913991
0
140.07718
167.8652
290.29127
0
0
0
5.8169515
0
0
85.523693
0
54.594446
45.225272
6.7803386
219.53434
43.707913
45.098521
44.982149
0
0
305.90159
320.45889
382.55989
439.62545
409.53271
0
46.434816
0
0
0
0
0
0
53.567805
0
0
26.01979
3.0154233
18.471244
22.987763
14.918205
24.422536
25.363439
26.746239
23.740506
500.67878
82.793602
14.91647
19.27266
14.679154
18.175583
26.655778
19.838008
84.757751
540.26053
0
169.02839
225.52458
538.74491
27.475106
0
199.40098
575.08552
579.60378
574.04708
0
23.736305
208.00989
0
0
0
0
84.041699
106.17277
83.824499
112.85417
0
0
0
50.920208
138.60186
102.64132
0
0
0
107.52573
144.15459
108.77475
29.172872
151.08714
191.97794
251.92259
139.13728
10.540754
9.2824312
131.04299
115.68449
137.91616
208.65178
0
4.0361845
7.888864
0.42982604
0
0
1.8567187
9.8451965
0
21.260621
0
7.0376099
375.43657
382.99848
389.16922
475.77031
0
84.945513
49.573475
50.940773
19.160416
0
0
0
0
0
0
216.59096
348.92842
28.188126
32.177144
165.37563
346.44003
272.12773
83.787892
40.285841
415.8104
409.47233
407.29598
11.353748
17.952873
32.555199
44.332612
321.7693
388.9406
383.2337
84.072932
43.878279
401.39195
430.70114
48.643568
53.339657
0
34.791632
0
107.24124
214.95552
269.2619
266.67584
334.68321
228.96036
279.91094
320.20844
449.98671
455.89798
325.93019
541.2582
583.07677
574.6743
455.62779
326.3987
188.88099
163.21681
12.237881
356.62426
350.98815
571.39177
316.43703
315.09676
518.98481
573.11616
595.17456
582.5178
527.48576
529.32632
138.27727
200.85055
239.55837
0
144.00002
14.090369
388.06739
328.09819
379.85113
454.81203
510.87123
562.81905
524.38968
545.93518
557.6037
428.44015
509.13287
590.15158
589.76779
594.09608
570.38303
521.37811
527.48628
0
9.0597273
166.69451
314.6401
213.36893
265.53222
8.4039525
152.38312
207.76528
417.13839
230.10878
534.54254
0
0
0
0
0
0
0
0
0
275.46545
306.06195
228.13015
314.46217
396.63969
280.82966
0
0
0
0
0
3.5930892
0
11.099534
196.38666
254.99039
195.21224
25.331162
290.82315
219.52764
4.4195924
306.16039
252.68303
24.466307
314.72752
593.33455
463.20673
579.57261
300.06421
425.64997
0
0
0
0
0
0
0
0
0
0
0
0
0
0
0
0
505.51388
26.447847
44.429902
246.74285
485.94112
522.81402
573.93747
532.27369
578.40392
208.91932
591.40761
196.44089
175.06436
460.93117
528.97422
0
77.11001
58.322996
24.978981
109.19295
248.911
263.78905
0
0
85.080332
69.04512
194.20522
238.57634
230.69367
0
0
12.22737
11.630222
5.1397394
6.8860076
27.196342
55.17964
25.149667
35.21888
51.419263
7.8385206
324.94818
388.5574
388.93637
202.82288
329.33161
25.330263
335.71885
490.97454
277.57568
343.03477
91.991008
117.33147
121.60738
12.57283
40.240639
398.16333
431.51516
412.29627
76.259381
404.8188
3.3898302
12.109635
17.322758
51.942688
44.064756
42.955086
51.696201
31.909456
260.71817
439.94391
82.823636
221.78978
497.63654
59.57848
435.49406
164.35278
36.539292
91.155795
157.76336
420.06307
0
0
24.906272
157.67165
406.37513
445.80865
525.51315
69.94431
137.31344
241.95695
395.5418
319.96792
446.54076
262.31361
546.08642
519.5558
481.31158
510.48165
560.28039
446.97274
530.74308
446.43168
210.01911
349.40673
439.73344
276.26787
311.6878
262.82631
592.90712
552.93837
494.91885
304.30263
428.90536
304.3077
563.84585
573.67477
528.96196
23.428759
40.651867
0
0
0
95.587316
337.36948
431.111
91.106704
380.45038
)

)


// ************************************************************************* //
