/*--------------------------------*- C++ -*----------------------------------*\
  =========                 |
  \\      /  F ield         | OpenFOAM: The Open Source CFD Toolbox
   \\    /   O peration     | Website:  https://openfoam.org
    \\  /    A nd           | Version:  8
     \\/     M anipulation  |
\*---------------------------------------------------------------------------*/
/*   Windows 32 and 64 bit porting by blueCAPE: http://www.bluecape.com.pt   *\
|  Based on Windows porting (2.0.x v4) by Symscape: http://www.symscape.com   |
\*---------------------------------------------------------------------------*/
FoamFile
{
    version     2.0;
    format      ascii;
    class       labelListList;
    location    "constant/vegetation";
    object      subMap;
}
// * * * * * * * * * * * * * * * * * * * * * * * * * * * * * * * * * * * * * //


20
(
10(33 1 40 43 44 45 46 14 15 23)

18
(
0
1
2
3
4
5
9
11
14
18
24
33
40
43
44
45
46
47
)

2(1 2)

21
(
0
1
2
3
4
5
10
15
23
28
30
32
33
36
41
42
43
44
45
46
47
)


20
(
0
1
2
3
4
5
9
14
15
23
24
28
33
36
40
43
44
45
46
47
)


36
(
0
1
2
3
4
5
6
7
8
9
10
14
15
18
19
20
22
23
28
29
30
31
32
33
35
36
37
38
39
40
41
42
43
44
45
46
)


28
(
0
1
4
5
7
8
9
10
15
18
19
22
23
28
29
30
32
33
35
36
38
39
41
42
43
44
45
46
)


38
(
0
1
2
3
4
5
7
8
9
10
11
12
13
14
15
17
18
20
21
22
24
28
30
31
32
33
35
36
38
39
40
41
42
43
44
45
46
47
)

1(2)

15
(
0
2
3
7
8
10
17
18
22
24
30
32
41
46
47
)


33
(
0
1
2
3
4
5
6
11
12
13
14
16
17
18
19
20
21
24
25
26
27
28
29
33
34
35
36
37
38
40
44
45
47
)


36
(
0
1
2
3
4
5
6
8
11
12
14
15
17
18
19
20
21
22
23
25
26
28
29
30
32
33
34
35
36
37
38
39
41
42
44
45
)


26
(
0
1
2
3
4
5
6
11
12
13
14
16
17
18
19
20
21
24
25
26
27
33
34
40
45
47
)


22
(
0
1
2
3
4
5
6
11
12
14
16
19
21
25
26
27
28
29
33
34
44
45
)


28
(
0
1
2
3
4
5
6
11
15
19
25
26
27
28
29
30
32
34
35
36
37
38
39
41
42
43
44
45
)


40
(
0
1
2
3
4
5
7
8
9
11
12
13
14
16
17
18
20
21
22
24
25
27
28
29
30
31
33
34
35
36
37
38
39
40
41
43
44
45
46
47
)


48
(
0
1
2
3
4
5
6
7
8
9
10
11
12
13
14
15
16
17
18
19
20
21
22
23
24
25
26
27
28
29
30
31
32
33
34
35
36
37
38
39
40
41
42
43
44
45
46
47
)


39
(
0
1
2
3
4
5
7
8
9
10
11
12
13
14
17
18
20
21
22
24
28
29
30
31
32
33
35
36
37
38
39
40
41
42
43
44
45
46
47
)


38
(
0
1
2
3
4
5
7
8
9
10
13
14
15
17
18
19
20
21
22
28
29
30
31
32
33
35
36
37
38
39
40
41
42
43
44
45
46
47
)


42
(
0
1
2
3
4
5
6
7
8
9
10
11
12
13
14
15
17
18
19
20
21
22
24
28
29
30
31
32
33
35
36
37
38
39
40
41
42
43
44
45
46
47
)

)


// ************************************************************************* //
