/*--------------------------------*- C++ -*----------------------------------*\
  =========                 |
  \\      /  F ield         | OpenFOAM: The Open Source CFD Toolbox
   \\    /   O peration     | Website:  https://openfoam.org
    \\  /    A nd           | Version:  8
     \\/     M anipulation  |
\*---------------------------------------------------------------------------*/
/*   Windows 32 and 64 bit porting by blueCAPE: http://www.bluecape.com.pt   *\
|  Based on Windows porting (2.0.x v4) by Symscape: http://www.symscape.com   |
\*---------------------------------------------------------------------------*/
FoamFile
{
    version     2.0;
    format      ascii;
    class       scalarListList;
    location    "constant/vegetation";
    object      sunViewCoeff;
}
// * * * * * * * * * * * * * * * * * * * * * * * * * * * * * * * * * * * * * //


5
(

48
(
0
0
0
0
0
0
550.59084
124.30787
23.612512
272.88248
367.87176
132.52468
0
17.027348
46.094059
600.97608
22.962367
0
0
385.47459
0
0
12.24175
761.62161
66.297798
162.99995
577.781
243.52429
412.06022
202.85556
0
12.180138
264.65048
441.04961
577.34434
244.19117
442.20393
33.052999
221.97794
361.33825
197.41591
132.84753
407.84888
609.83463
664.83162
747.19293
527.00841
361.63274
)


48
(
0
0
0
0
0
0
360.7408
263.45333
27.663018
368.48314
447.48879
61.74429
0
9.887044
80.101171
509.30242
8.355648
0
0
233.35706
11.322436
0
142.56569
636.47774
66.59986
20.261523
379.59237
90.569341
325.9245
126.04468
9.4432537
98.199545
345.6834
389.37594
386.25731
213.20084
433.54904
66.768111
251.76602
428.32932
274.86344
240.64402
420.65399
608.29661
569.72136
645.85222
557.99346
368.01998
)


48
(
0
0
0
0
0
0
226.62061
415.84159
200.91935
496.53788
563.37672
23.935921
0
62.777097
127.10889
474.37063
19.639209
0
12.717662
96.340059
13.233203
0
305.84052
593.85251
87.861013
5.9759127
246.47118
3.3722396
274.3223
53.046484
137.36745
247.28798
447.53172
395.88511
247.46445
197.02496
464.26596
80.385266
294.6249
529.09294
377.66066
347.83686
468.72686
671.61221
541.9292
626.97653
645.24773
421.46772
)


48
(
0
0
0
0
0
0
51.890064
500.75618
110.64069
549.05188
589.72414
1.6242086
0
153.12428
169.68085
361.90476
14.30498
19.633216
0.32495056
12.469965
129.0304
20.112754
421.84523
464.08153
108.92502
0
74.349451
16.658302
168.15284
6.0907113
72.427949
355.17176
472.06582
353.15457
89.687282
141.01113
415.49278
65.107457
281.07712
541.99908
427.544
392.42605
436.76988
634.14542
427.29149
517.33109
633.55698
420.39293
)


48
(
0
0
0
0
0
0
14.405121
196.64652
28.124266
570.67574
581.91615
10.969423
0
234.80642
204.55997
229.7119
15.541328
5.2410967
6.4233343
26.275432
187.86516
6.1079887
44.615714
325.92496
135.25121
0
17.416952
27.598045
59.076052
0
18.242801
439.59504
419.16885
305.71935
15.918302
73.917863
343.38797
29.496741
246.00231
508.13939
457.05915
158.26168
378.31963
568.6838
300.11814
396.78045
590.35635
405.43665
)

)


// ************************************************************************* //
