/*--------------------------------*- C++ -*----------------------------------*\
  =========                 |
  \\      /  F ield         | OpenFOAM: The Open Source CFD Toolbox
   \\    /   O peration     | Website:  https://openfoam.org
    \\  /    A nd           | Version:  8
     \\/     M anipulation  |
\*---------------------------------------------------------------------------*/
/*   Windows 32 and 64 bit porting by blueCAPE: http://www.bluecape.com.pt   *\
|  Based on Windows porting (2.0.x v4) by Symscape: http://www.symscape.com   |
\*---------------------------------------------------------------------------*/
FoamFile
{
    version     2.0;
    format      ascii;
    class       extendedFeatureEdgeMesh;
    location    "constant/extendedFeatureEdgeMesh";
    object      tower.extendedFeatureEdgeMesh;
}
// * * * * * * * * * * * * * * * * * * * * * * * * * * * * * * * * * * * * * //

// points

1044
(
(102 185.97946 -1.6298806e-11)
(102 185.97946 8.4970465)
(115.24946 185.97946 -1.6298806e-11)
(115.24946 185.97946 8.4970465)
(115.24946 193 -1.6298806e-11)
(115.24946 193 8.4970465)
(102 193 -1.6298806e-11)
(102 193 8.4970465)
(102 165.97946 -1.6298806e-11)
(102 165.97946 8.4970465)
(115.24946 165.97946 -1.6298806e-11)
(115.24946 165.97946 8.4970465)
(115.24946 173 -1.6298806e-11)
(115.24946 173 8.4970465)
(102 173 -1.6298806e-11)
(102 173 8.4970465)
(102 211.97946 0)
(102 211.97946 8.4970465)
(115.24946 211.97946 0)
(115.24946 211.97946 8.4970465)
(115.24946 219 0)
(115.24946 219 8.4970465)
(102 219 0)
(102 219 8.4970465)
(102 185.97946 0.31470543)
(102.31546 185.97946 -1.6298806e-11)
(102.63093 185.97946 -1.6298806e-11)
(102 185.97946 0.62941086)
(102 185.97946 0.94411629)
(102 185.97946 1.5735272)
(102 185.97946 1.2588217)
(102.94639 185.97946 -1.6298806e-11)
(103.26186 185.97946 -1.6298806e-11)
(102 185.97946 2.2029381)
(102 185.97946 1.8882326)
(102 185.97946 2.8323488)
(102 185.97946 2.5176435)
(102 185.97946 3.4617598)
(102 185.97946 3.1470544)
(102 185.97946 4.0911708)
(102 185.97946 3.7764652)
(103.57732 185.97946 -1.6298806e-11)
(103.89278 185.97946 -1.6298806e-11)
(104.20824 185.97946 -1.6298806e-11)
(104.5237 185.97946 -1.6298806e-11)
(104.83917 185.97946 -1.6298806e-11)
(105.15463 185.97946 -1.6298806e-11)
(105.4701 185.97946 -1.6298806e-11)
(105.78556 185.97946 -1.6298806e-11)
(106.10102 185.97946 -1.6298806e-11)
(106.41649 185.97946 -1.6298806e-11)
(106.73195 185.97946 -1.6298806e-11)
(107.04742 185.97946 -1.6298806e-11)
(107.36288 185.97946 -1.6298806e-11)
(107.67834 185.97946 -1.6298806e-11)
(107.9938 185.97946 -1.6298806e-11)
(108.30927 185.97946 -1.6298806e-11)
(108.62473 185.97946 -1.6298806e-11)
(102 185.97946 4.7205815)
(102 185.97946 4.4058762)
(102 185.97946 5.3499923)
(102 185.97946 5.0352869)
(102 185.97946 5.9794035)
(102 185.97946 5.6646976)
(102 185.97946 6.6088142)
(102 185.97946 6.2941089)
(102 185.97946 7.238225)
(102 185.97946 6.9235196)
(102 185.97946 7.5529304)
(102 185.97946 7.8676357)
(102.31546 185.97946 8.4970465)
(102.94639 185.97946 8.4970465)
(102.63093 185.97946 8.4970465)
(103.26186 185.97946 8.4970465)
(108.30927 185.97946 8.4970465)
(107.9938 185.97946 8.4970465)
(108.62473 185.97946 8.4970465)
(108.94019 185.97946 -1.6298806e-11)
(109.25566 185.97946 -1.6298806e-11)
(109.57112 185.97946 -1.6298806e-11)
(109.88658 185.97946 -1.6298806e-11)
(110.20205 185.97946 -1.6298806e-11)
(110.51751 185.97946 -1.6298806e-11)
(110.83298 185.97946 -1.6298806e-11)
(111.14844 185.97946 -1.6298806e-11)
(111.4639 185.97946 -1.6298806e-11)
(111.77937 185.97946 -1.6298806e-11)
(112.09483 185.97946 -1.6298806e-11)
(112.41029 185.97946 -1.6298806e-11)
(112.72575 185.97946 -1.6298806e-11)
(113.04122 185.97946 -1.6298806e-11)
(113.35668 185.97946 -1.6298806e-11)
(113.67214 185.97946 -1.6298806e-11)
(113.98761 185.97946 -1.6298806e-11)
(114.30307 185.97946 -1.6298806e-11)
(114.61854 185.97946 -1.6298806e-11)
(115.24946 185.97946 0.31470543)
(115.24946 185.97946 0.62941086)
(115.24946 185.97946 0.94411629)
(115.24946 185.97946 1.2588217)
(115.24946 185.97946 1.5735272)
(115.24946 185.97946 3.7764652)
(115.24946 185.97946 4.0911708)
(108.94019 185.97946 8.4970465)
(115.24946 185.97946 4.4058762)
(115.24946 185.97946 6.9235196)
(115.24946 185.97946 7.238225)
(115.24946 185.97946 7.5529304)
(115.24946 185.97946 7.8676357)
(114.61854 185.97946 8.4970465)
(115.24946 186.29858 -1.6298806e-11)
(115.24946 186.61769 -1.6298806e-11)
(115.24946 185.97946 2.2029381)
(115.24946 185.97946 1.8882326)
(115.24946 185.97946 2.8323488)
(115.24946 185.97946 2.5176435)
(115.24946 185.97946 3.1470544)
(115.24946 185.97946 3.4617598)
(115.24946 186.93681 -1.6298806e-11)
(115.24946 187.25592 -1.6298806e-11)
(115.24946 187.57504 -1.6298806e-11)
(115.24946 187.89415 -1.6298806e-11)
(115.24946 188.21327 -1.6298806e-11)
(115.24946 188.53238 -1.6298806e-11)
(115.24946 188.8515 -1.6298806e-11)
(115.24946 189.17061 -1.6298806e-11)
(115.24946 189.48973 -1.6298806e-11)
(115.24946 185.97946 4.7205815)
(115.24946 185.97946 5.3499923)
(115.24946 185.97946 5.0352869)
(115.24946 185.97946 5.6646976)
(115.24946 185.97946 6.2941089)
(115.24946 185.97946 5.9794035)
(115.24946 185.97946 6.6088142)
(115.24946 186.29858 8.4970465)
(115.24946 189.48973 8.4970465)
(115.24946 189.17061 8.4970465)
(115.24946 188.53238 8.4970465)
(115.24946 188.21327 8.4970465)
(115.24946 189.80885 -1.6298806e-11)
(115.24946 190.12796 -1.6298806e-11)
(115.24946 190.44708 -1.6298806e-11)
(115.24946 190.76619 -1.6298806e-11)
(115.24946 191.08531 -1.6298806e-11)
(115.24946 191.40442 -1.6298806e-11)
(115.24946 191.72354 -1.6298806e-11)
(115.24946 192.04265 -1.6298806e-11)
(115.24946 192.36177 -1.6298806e-11)
(115.24946 193 0.31470543)
(115.24946 193 0.94411629)
(115.24946 193 1.2588217)
(115.24946 193 1.8882326)
(115.24946 193 2.2029381)
(115.24946 193 3.7764652)
(115.24946 193 4.0911708)
(115.24946 189.80885 8.4970465)
(115.24946 192.36177 8.4970465)
(115.24946 192.04265 8.4970465)
(115.24946 193 7.8676357)
(115.24946 193 4.4058762)
(114.934 193 -1.6298806e-11)
(114.61854 193 -1.6298806e-11)
(115.24946 193 0.62941086)
(115.24946 193 1.5735272)
(114.30307 193 -1.6298806e-11)
(113.98761 193 -1.6298806e-11)
(115.24946 193 2.8323488)
(115.24946 193 2.5176435)
(115.24946 193 3.4617598)
(115.24946 193 3.1470544)
(113.67214 193 -1.6298806e-11)
(113.35668 193 -1.6298806e-11)
(113.04122 193 -1.6298806e-11)
(112.72575 193 -1.6298806e-11)
(112.41029 193 -1.6298806e-11)
(112.09483 193 -1.6298806e-11)
(111.77937 193 -1.6298806e-11)
(111.4639 193 -1.6298806e-11)
(111.14844 193 -1.6298806e-11)
(110.83298 193 -1.6298806e-11)
(110.51751 193 -1.6298806e-11)
(110.20205 193 -1.6298806e-11)
(109.88658 193 -1.6298806e-11)
(109.57112 193 -1.6298806e-11)
(109.25566 193 -1.6298806e-11)
(108.94019 193 -1.6298806e-11)
(108.62473 193 -1.6298806e-11)
(115.24946 193 4.7205815)
(115.24946 193 5.3499923)
(115.24946 193 5.0352869)
(115.24946 193 5.9794035)
(115.24946 193 5.6646976)
(115.24946 193 6.6088142)
(115.24946 193 6.2941089)
(115.24946 193 7.238225)
(115.24946 193 6.9235196)
(115.24946 193 7.5529304)
(114.934 193 8.4970465)
(114.30307 193 8.4970465)
(114.61854 193 8.4970465)
(113.98761 193 8.4970465)
(108.94019 193 8.4970465)
(109.25566 193 8.4970465)
(108.62473 193 8.4970465)
(108.30927 193 -1.6298806e-11)
(107.9938 193 -1.6298806e-11)
(107.67834 193 -1.6298806e-11)
(107.36288 193 -1.6298806e-11)
(107.04742 193 -1.6298806e-11)
(106.73195 193 -1.6298806e-11)
(106.41649 193 -1.6298806e-11)
(106.10102 193 -1.6298806e-11)
(105.78556 193 -1.6298806e-11)
(105.4701 193 -1.6298806e-11)
(105.15463 193 -1.6298806e-11)
(104.83917 193 -1.6298806e-11)
(104.5237 193 -1.6298806e-11)
(104.20824 193 -1.6298806e-11)
(103.89278 193 -1.6298806e-11)
(103.57732 193 -1.6298806e-11)
(103.26186 193 -1.6298806e-11)
(102.94639 193 -1.6298806e-11)
(102.63093 193 -1.6298806e-11)
(102 193 0.31470543)
(102 193 0.62941086)
(102 193 0.94411629)
(102 193 1.2588217)
(102 193 1.5735272)
(102 193 3.7764652)
(102 193 4.0911708)
(108.30927 193 8.4970465)
(102 193 4.4058762)
(102 193 6.9235196)
(102 193 7.238225)
(102 193 7.5529304)
(102 193 7.8676357)
(102.63093 193 8.4970465)
(102 192.68088 -1.6298806e-11)
(102 192.36177 -1.6298806e-11)
(102 193 2.2029381)
(102 193 1.8882326)
(102 193 2.8323488)
(102 193 2.5176435)
(102 193 3.1470544)
(102 193 3.4617598)
(102 192.04265 -1.6298806e-11)
(102 191.72354 -1.6298806e-11)
(102 191.40442 -1.6298806e-11)
(102 191.08531 -1.6298806e-11)
(102 190.76619 -1.6298806e-11)
(102 190.44708 -1.6298806e-11)
(102 190.12796 -1.6298806e-11)
(102 189.80885 -1.6298806e-11)
(102 189.48973 -1.6298806e-11)
(102 193 4.7205815)
(102 193 5.3499923)
(102 193 5.0352869)
(102 193 5.6646976)
(102 193 6.2941089)
(102 193 5.9794035)
(102 193 6.6088142)
(102 192.68088 8.4970465)
(102 189.48973 8.4970465)
(102 189.80885 8.4970465)
(102 190.44708 8.4970465)
(102 190.76619 8.4970465)
(102 189.17061 -1.6298806e-11)
(102 188.8515 -1.6298806e-11)
(102 188.53238 -1.6298806e-11)
(102 188.21327 -1.6298806e-11)
(102 187.89415 -1.6298806e-11)
(102 187.57504 -1.6298806e-11)
(102 187.25592 -1.6298806e-11)
(102 186.93681 -1.6298806e-11)
(102 186.61769 -1.6298806e-11)
(102 189.17061 8.4970465)
(102 186.61769 8.4970465)
(102 186.93681 8.4970465)
(103.57732 185.97946 8.4970465)
(103.89278 185.97946 8.4970465)
(102 187.57504 8.4970465)
(102 187.25592 8.4970465)
(102 187.89415 8.4970465)
(102 188.53238 8.4970465)
(102 188.21327 8.4970465)
(102 188.8515 8.4970465)
(104.20824 185.97946 8.4970465)
(104.5237 185.97946 8.4970465)
(104.83917 185.97946 8.4970465)
(105.15463 185.97946 8.4970465)
(105.4701 185.97946 8.4970465)
(105.78556 185.97946 8.4970465)
(106.10102 185.97946 8.4970465)
(106.41649 185.97946 8.4970465)
(106.73195 185.97946 8.4970465)
(107.04742 185.97946 8.4970465)
(107.36288 185.97946 8.4970465)
(107.67834 185.97946 8.4970465)
(102 190.12796 8.4970465)
(102 191.40442 8.4970465)
(102 191.08531 8.4970465)
(102 192.36177 8.4970465)
(103.89278 193 8.4970465)
(103.57732 193 8.4970465)
(109.25566 185.97946 8.4970465)
(109.57112 185.97946 8.4970465)
(109.88658 185.97946 8.4970465)
(110.20205 185.97946 8.4970465)
(110.51751 185.97946 8.4970465)
(110.83298 185.97946 8.4970465)
(111.14844 185.97946 8.4970465)
(111.4639 185.97946 8.4970465)
(111.77937 185.97946 8.4970465)
(112.09483 185.97946 8.4970465)
(112.41029 185.97946 8.4970465)
(112.72575 185.97946 8.4970465)
(113.04122 185.97946 8.4970465)
(113.35668 185.97946 8.4970465)
(113.67214 185.97946 8.4970465)
(113.98761 185.97946 8.4970465)
(114.30307 185.97946 8.4970465)
(115.24946 186.61769 8.4970465)
(115.24946 186.93681 8.4970465)
(115.24946 187.25592 8.4970465)
(113.67214 193 8.4970465)
(113.35668 193 8.4970465)
(102 165.97946 0.31470543)
(102.31546 165.97946 -1.6298806e-11)
(102.63093 165.97946 -1.6298806e-11)
(102 165.97946 0.62941086)
(102 165.97946 0.94411629)
(102 165.97946 1.5735272)
(102 165.97946 1.2588217)
(102.94639 165.97946 -1.6298806e-11)
(103.26186 165.97946 -1.6298806e-11)
(102 165.97946 2.2029381)
(102 165.97946 1.8882326)
(102 165.97946 2.8323488)
(102 165.97946 2.5176435)
(102 165.97946 3.4617598)
(102 165.97946 3.1470544)
(102 165.97946 4.0911708)
(102 165.97946 3.7764652)
(103.57732 165.97946 -1.6298806e-11)
(103.89278 165.97946 -1.6298806e-11)
(104.20824 165.97946 -1.6298806e-11)
(104.5237 165.97946 -1.6298806e-11)
(104.83917 165.97946 -1.6298806e-11)
(105.15463 165.97946 -1.6298806e-11)
(105.4701 165.97946 -1.6298806e-11)
(105.78556 165.97946 -1.6298806e-11)
(106.10102 165.97946 -1.6298806e-11)
(106.41649 165.97946 -1.6298806e-11)
(106.73195 165.97946 -1.6298806e-11)
(107.04742 165.97946 -1.6298806e-11)
(107.36288 165.97946 -1.6298806e-11)
(107.67834 165.97946 -1.6298806e-11)
(107.9938 165.97946 -1.6298806e-11)
(108.30927 165.97946 -1.6298806e-11)
(108.62473 165.97946 -1.6298806e-11)
(102 165.97946 4.7205815)
(102 165.97946 4.4058762)
(102 165.97946 5.3499923)
(102 165.97946 5.0352869)
(102 165.97946 5.9794035)
(102 165.97946 5.6646976)
(102 165.97946 6.6088142)
(102 165.97946 6.2941089)
(102 165.97946 7.238225)
(102 165.97946 6.9235196)
(102 165.97946 7.5529304)
(102 165.97946 7.8676357)
(102.31546 165.97946 8.4970465)
(102.94639 165.97946 8.4970465)
(102.63093 165.97946 8.4970465)
(103.26186 165.97946 8.4970465)
(108.30927 165.97946 8.4970465)
(107.9938 165.97946 8.4970465)
(108.62473 165.97946 8.4970465)
(108.94019 165.97946 -1.6298806e-11)
(109.25566 165.97946 -1.6298806e-11)
(109.57112 165.97946 -1.6298806e-11)
(109.88658 165.97946 -1.6298806e-11)
(110.20205 165.97946 -1.6298806e-11)
(110.51751 165.97946 -1.6298806e-11)
(110.83298 165.97946 -1.6298806e-11)
(111.14844 165.97946 -1.6298806e-11)
(111.4639 165.97946 -1.6298806e-11)
(111.77937 165.97946 -1.6298806e-11)
(112.09483 165.97946 -1.6298806e-11)
(112.41029 165.97946 -1.6298806e-11)
(112.72575 165.97946 -1.6298806e-11)
(113.04122 165.97946 -1.6298806e-11)
(113.35668 165.97946 -1.6298806e-11)
(113.67214 165.97946 -1.6298806e-11)
(113.98761 165.97946 -1.6298806e-11)
(114.30307 165.97946 -1.6298806e-11)
(114.61854 165.97946 -1.6298806e-11)
(115.24946 165.97946 0.31470543)
(115.24946 165.97946 0.62941086)
(115.24946 165.97946 0.94411629)
(115.24946 165.97946 1.2588217)
(115.24946 165.97946 1.5735272)
(115.24946 165.97946 3.7764652)
(115.24946 165.97946 4.0911708)
(108.94019 165.97946 8.4970465)
(115.24946 165.97946 4.4058762)
(115.24946 165.97946 6.9235196)
(115.24946 165.97946 7.238225)
(115.24946 165.97946 7.5529304)
(115.24946 165.97946 7.8676357)
(114.61854 165.97946 8.4970465)
(115.24946 166.29858 -1.6298806e-11)
(115.24946 166.61769 -1.6298806e-11)
(115.24946 165.97946 2.2029381)
(115.24946 165.97946 1.8882326)
(115.24946 165.97946 2.8323488)
(115.24946 165.97946 2.5176435)
(115.24946 165.97946 3.1470544)
(115.24946 165.97946 3.4617598)
(115.24946 166.93681 -1.6298806e-11)
(115.24946 167.25592 -1.6298806e-11)
(115.24946 167.57504 -1.6298806e-11)
(115.24946 167.89415 -1.6298806e-11)
(115.24946 168.21327 -1.6298806e-11)
(115.24946 168.53238 -1.6298806e-11)
(115.24946 168.8515 -1.6298806e-11)
(115.24946 169.17061 -1.6298806e-11)
(115.24946 169.48973 -1.6298806e-11)
(115.24946 165.97946 4.7205815)
(115.24946 165.97946 5.3499923)
(115.24946 165.97946 5.0352869)
(115.24946 165.97946 5.6646976)
(115.24946 165.97946 6.2941089)
(115.24946 165.97946 5.9794035)
(115.24946 165.97946 6.6088142)
(115.24946 166.29858 8.4970465)
(115.24946 169.48973 8.4970465)
(115.24946 169.17061 8.4970465)
(115.24946 168.53238 8.4970465)
(115.24946 168.21327 8.4970465)
(115.24946 169.80885 -1.6298806e-11)
(115.24946 170.12796 -1.6298806e-11)
(115.24946 170.44708 -1.6298806e-11)
(115.24946 170.76619 -1.6298806e-11)
(115.24946 171.08531 -1.6298806e-11)
(115.24946 171.40442 -1.6298806e-11)
(115.24946 171.72354 -1.6298806e-11)
(115.24946 172.04265 -1.6298806e-11)
(115.24946 172.36177 -1.6298806e-11)
(115.24946 173 0.31470543)
(115.24946 173 0.94411629)
(115.24946 173 1.2588217)
(115.24946 173 1.8882326)
(115.24946 173 2.2029381)
(115.24946 173 3.7764652)
(115.24946 173 4.0911708)
(115.24946 169.80885 8.4970465)
(115.24946 172.36177 8.4970465)
(115.24946 172.04265 8.4970465)
(115.24946 173 7.8676357)
(115.24946 173 4.4058762)
(114.934 173 -1.6298806e-11)
(114.61854 173 -1.6298806e-11)
(115.24946 173 0.62941086)
(115.24946 173 1.5735272)
(114.30307 173 -1.6298806e-11)
(113.98761 173 -1.6298806e-11)
(115.24946 173 2.8323488)
(115.24946 173 2.5176435)
(115.24946 173 3.4617598)
(115.24946 173 3.1470544)
(113.67214 173 -1.6298806e-11)
(113.35668 173 -1.6298806e-11)
(113.04122 173 -1.6298806e-11)
(112.72575 173 -1.6298806e-11)
(112.41029 173 -1.6298806e-11)
(112.09483 173 -1.6298806e-11)
(111.77937 173 -1.6298806e-11)
(111.4639 173 -1.6298806e-11)
(111.14844 173 -1.6298806e-11)
(110.83298 173 -1.6298806e-11)
(110.51751 173 -1.6298806e-11)
(110.20205 173 -1.6298806e-11)
(109.88658 173 -1.6298806e-11)
(109.57112 173 -1.6298806e-11)
(109.25566 173 -1.6298806e-11)
(108.94019 173 -1.6298806e-11)
(108.62473 173 -1.6298806e-11)
(115.24946 173 4.7205815)
(115.24946 173 5.3499923)
(115.24946 173 5.0352869)
(115.24946 173 5.9794035)
(115.24946 173 5.6646976)
(115.24946 173 6.6088142)
(115.24946 173 6.2941089)
(115.24946 173 7.238225)
(115.24946 173 6.9235196)
(115.24946 173 7.5529304)
(114.934 173 8.4970465)
(114.30307 173 8.4970465)
(114.61854 173 8.4970465)
(113.98761 173 8.4970465)
(108.94019 173 8.4970465)
(109.25566 173 8.4970465)
(108.62473 173 8.4970465)
(108.30927 173 -1.6298806e-11)
(107.9938 173 -1.6298806e-11)
(107.67834 173 -1.6298806e-11)
(107.36288 173 -1.6298806e-11)
(107.04742 173 -1.6298806e-11)
(106.73195 173 -1.6298806e-11)
(106.41649 173 -1.6298806e-11)
(106.10102 173 -1.6298806e-11)
(105.78556 173 -1.6298806e-11)
(105.4701 173 -1.6298806e-11)
(105.15463 173 -1.6298806e-11)
(104.83917 173 -1.6298806e-11)
(104.5237 173 -1.6298806e-11)
(104.20824 173 -1.6298806e-11)
(103.89278 173 -1.6298806e-11)
(103.57732 173 -1.6298806e-11)
(103.26186 173 -1.6298806e-11)
(102.94639 173 -1.6298806e-11)
(102.63093 173 -1.6298806e-11)
(102 173 0.31470543)
(102 173 0.62941086)
(102 173 0.94411629)
(102 173 1.2588217)
(102 173 1.5735272)
(102 173 3.7764652)
(102 173 4.0911708)
(108.30927 173 8.4970465)
(102 173 4.4058762)
(102 173 6.9235196)
(102 173 7.238225)
(102 173 7.5529304)
(102 173 7.8676357)
(102.63093 173 8.4970465)
(102 172.68088 -1.6298806e-11)
(102 172.36177 -1.6298806e-11)
(102 173 2.2029381)
(102 173 1.8882326)
(102 173 2.8323488)
(102 173 2.5176435)
(102 173 3.1470544)
(102 173 3.4617598)
(102 172.04265 -1.6298806e-11)
(102 171.72354 -1.6298806e-11)
(102 171.40442 -1.6298806e-11)
(102 171.08531 -1.6298806e-11)
(102 170.76619 -1.6298806e-11)
(102 170.44708 -1.6298806e-11)
(102 170.12796 -1.6298806e-11)
(102 169.80885 -1.6298806e-11)
(102 169.48973 -1.6298806e-11)
(102 173 4.7205815)
(102 173 5.3499923)
(102 173 5.0352869)
(102 173 5.6646976)
(102 173 6.2941089)
(102 173 5.9794035)
(102 173 6.6088142)
(102 172.68088 8.4970465)
(102 169.48973 8.4970465)
(102 169.80885 8.4970465)
(102 170.44708 8.4970465)
(102 170.76619 8.4970465)
(102 169.17061 -1.6298806e-11)
(102 168.8515 -1.6298806e-11)
(102 168.53238 -1.6298806e-11)
(102 168.21327 -1.6298806e-11)
(102 167.89415 -1.6298806e-11)
(102 167.57504 -1.6298806e-11)
(102 167.25592 -1.6298806e-11)
(102 166.93681 -1.6298806e-11)
(102 166.61769 -1.6298806e-11)
(102 169.17061 8.4970465)
(102 166.61769 8.4970465)
(102 166.93681 8.4970465)
(103.57732 165.97946 8.4970465)
(103.89278 165.97946 8.4970465)
(102 167.57504 8.4970465)
(102 167.25592 8.4970465)
(102 167.89415 8.4970465)
(102 168.53238 8.4970465)
(102 168.21327 8.4970465)
(102 168.8515 8.4970465)
(104.20824 165.97946 8.4970465)
(104.5237 165.97946 8.4970465)
(104.83917 165.97946 8.4970465)
(105.15463 165.97946 8.4970465)
(105.4701 165.97946 8.4970465)
(105.78556 165.97946 8.4970465)
(106.10102 165.97946 8.4970465)
(106.41649 165.97946 8.4970465)
(106.73195 165.97946 8.4970465)
(107.04742 165.97946 8.4970465)
(107.36288 165.97946 8.4970465)
(107.67834 165.97946 8.4970465)
(102 170.12796 8.4970465)
(102 171.40442 8.4970465)
(102 171.08531 8.4970465)
(102 172.36177 8.4970465)
(103.89278 173 8.4970465)
(103.57732 173 8.4970465)
(109.25566 165.97946 8.4970465)
(109.57112 165.97946 8.4970465)
(109.88658 165.97946 8.4970465)
(110.20205 165.97946 8.4970465)
(110.51751 165.97946 8.4970465)
(110.83298 165.97946 8.4970465)
(111.14844 165.97946 8.4970465)
(111.4639 165.97946 8.4970465)
(111.77937 165.97946 8.4970465)
(112.09483 165.97946 8.4970465)
(112.41029 165.97946 8.4970465)
(112.72575 165.97946 8.4970465)
(113.04122 165.97946 8.4970465)
(113.35668 165.97946 8.4970465)
(113.67214 165.97946 8.4970465)
(113.98761 165.97946 8.4970465)
(114.30307 165.97946 8.4970465)
(115.24946 166.61769 8.4970465)
(115.24946 166.93681 8.4970465)
(115.24946 167.25592 8.4970465)
(113.67214 173 8.4970465)
(113.35668 173 8.4970465)
(102 211.97946 0.31470543)
(102.31546 211.97946 0)
(102.63093 211.97946 0)
(102 211.97946 0.62941086)
(102 211.97946 0.94411629)
(102 211.97946 1.5735272)
(102 211.97946 1.2588217)
(102.94639 211.97946 0)
(103.26186 211.97946 0)
(102 211.97946 2.2029381)
(102 211.97946 1.8882326)
(102 211.97946 2.8323488)
(102 211.97946 2.5176435)
(102 211.97946 3.4617598)
(102 211.97946 3.1470544)
(102 211.97946 4.0911708)
(102 211.97946 3.7764652)
(103.57732 211.97946 0)
(103.89278 211.97946 0)
(104.20824 211.97946 0)
(104.5237 211.97946 0)
(104.83917 211.97946 0)
(105.15463 211.97946 0)
(105.4701 211.97946 0)
(105.78556 211.97946 0)
(106.10102 211.97946 0)
(106.41649 211.97946 0)
(106.73195 211.97946 0)
(107.04742 211.97946 0)
(107.36288 211.97946 0)
(107.67834 211.97946 0)
(107.9938 211.97946 0)
(108.30927 211.97946 0)
(108.62473 211.97946 0)
(102 211.97946 4.7205815)
(102 211.97946 4.4058762)
(102 211.97946 5.3499923)
(102 211.97946 5.0352869)
(102 211.97946 5.9794035)
(102 211.97946 5.6646976)
(102 211.97946 6.6088142)
(102 211.97946 6.2941089)
(102 211.97946 7.238225)
(102 211.97946 6.9235196)
(102 211.97946 7.5529304)
(102 211.97946 7.8676357)
(102.31546 211.97946 8.4970465)
(102.94639 211.97946 8.4970465)
(102.63093 211.97946 8.4970465)
(103.26186 211.97946 8.4970465)
(108.30927 211.97946 8.4970465)
(107.9938 211.97946 8.4970465)
(108.62473 211.97946 8.4970465)
(108.94019 211.97946 0)
(109.25566 211.97946 0)
(109.57112 211.97946 0)
(109.88658 211.97946 0)
(110.20205 211.97946 0)
(110.51751 211.97946 0)
(110.83298 211.97946 0)
(111.14844 211.97946 0)
(111.4639 211.97946 0)
(111.77937 211.97946 0)
(112.09483 211.97946 0)
(112.41029 211.97946 0)
(112.72575 211.97946 0)
(113.04122 211.97946 0)
(113.35668 211.97946 0)
(113.67214 211.97946 0)
(113.98761 211.97946 0)
(114.30307 211.97946 0)
(114.61854 211.97946 0)
(115.24946 211.97946 0.31470543)
(115.24946 211.97946 0.62941086)
(115.24946 211.97946 0.94411629)
(115.24946 211.97946 1.2588217)
(115.24946 211.97946 1.5735272)
(115.24946 211.97946 3.7764652)
(115.24946 211.97946 4.0911708)
(108.94019 211.97946 8.4970465)
(115.24946 211.97946 4.4058762)
(115.24946 211.97946 6.9235196)
(115.24946 211.97946 7.238225)
(115.24946 211.97946 7.5529304)
(115.24946 211.97946 7.8676357)
(114.61854 211.97946 8.4970465)
(115.24946 212.29858 0)
(115.24946 212.61769 0)
(115.24946 211.97946 2.2029381)
(115.24946 211.97946 1.8882326)
(115.24946 211.97946 2.8323488)
(115.24946 211.97946 2.5176435)
(115.24946 211.97946 3.1470544)
(115.24946 211.97946 3.4617598)
(115.24946 212.93681 0)
(115.24946 213.25592 0)
(115.24946 213.57504 0)
(115.24946 213.89415 0)
(115.24946 214.21327 0)
(115.24946 214.53238 0)
(115.24946 214.8515 0)
(115.24946 215.17061 0)
(115.24946 215.48973 0)
(115.24946 211.97946 4.7205815)
(115.24946 211.97946 5.3499923)
(115.24946 211.97946 5.0352869)
(115.24946 211.97946 5.6646976)
(115.24946 211.97946 6.2941089)
(115.24946 211.97946 5.9794035)
(115.24946 211.97946 6.6088142)
(115.24946 212.29858 8.4970465)
(115.24946 215.48973 8.4970465)
(115.24946 215.17061 8.4970465)
(115.24946 214.53238 8.4970465)
(115.24946 214.21327 8.4970465)
(115.24946 215.80885 0)
(115.24946 216.12796 0)
(115.24946 216.44708 0)
(115.24946 216.76619 0)
(115.24946 217.08531 0)
(115.24946 217.40442 0)
(115.24946 217.72354 0)
(115.24946 218.04265 0)
(115.24946 218.36177 0)
(115.24946 219 0.31470543)
(115.24946 219 0.94411629)
(115.24946 219 1.2588217)
(115.24946 219 1.8882326)
(115.24946 219 2.2029381)
(115.24946 219 3.7764652)
(115.24946 219 4.0911708)
(115.24946 215.80885 8.4970465)
(115.24946 218.36177 8.4970465)
(115.24946 218.04265 8.4970465)
(115.24946 219 7.8676357)
(115.24946 219 4.4058762)
(114.934 219 0)
(114.61854 219 0)
(115.24946 219 0.62941086)
(115.24946 219 1.5735272)
(114.30307 219 0)
(113.98761 219 0)
(115.24946 219 2.8323488)
(115.24946 219 2.5176435)
(115.24946 219 3.4617598)
(115.24946 219 3.1470544)
(113.67214 219 0)
(113.35668 219 0)
(113.04122 219 0)
(112.72575 219 0)
(112.41029 219 0)
(112.09483 219 0)
(111.77937 219 0)
(111.4639 219 0)
(111.14844 219 0)
(110.83298 219 0)
(110.51751 219 0)
(110.20205 219 0)
(109.88658 219 0)
(109.57112 219 0)
(109.25566 219 0)
(108.94019 219 0)
(108.62473 219 0)
(115.24946 219 4.7205815)
(115.24946 219 5.3499923)
(115.24946 219 5.0352869)
(115.24946 219 5.9794035)
(115.24946 219 5.6646976)
(115.24946 219 6.6088142)
(115.24946 219 6.2941089)
(115.24946 219 7.238225)
(115.24946 219 6.9235196)
(115.24946 219 7.5529304)
(114.934 219 8.4970465)
(114.30307 219 8.4970465)
(114.61854 219 8.4970465)
(113.98761 219 8.4970465)
(108.94019 219 8.4970465)
(109.25566 219 8.4970465)
(108.62473 219 8.4970465)
(108.30927 219 0)
(107.9938 219 0)
(107.67834 219 0)
(107.36288 219 0)
(107.04742 219 0)
(106.73195 219 0)
(106.41649 219 0)
(106.10102 219 0)
(105.78556 219 0)
(105.4701 219 0)
(105.15463 219 0)
(104.83917 219 0)
(104.5237 219 0)
(104.20824 219 0)
(103.89278 219 0)
(103.57732 219 0)
(103.26186 219 0)
(102.94639 219 0)
(102.63093 219 0)
(102 219 0.31470543)
(102 219 0.62941086)
(102 219 0.94411629)
(102 219 1.2588217)
(102 219 1.5735272)
(102 219 3.7764652)
(102 219 4.0911708)
(108.30927 219 8.4970465)
(102 219 4.4058762)
(102 219 6.9235196)
(102 219 7.238225)
(102 219 7.5529304)
(102 219 7.8676357)
(102.63093 219 8.4970465)
(102 218.68088 0)
(102 218.36177 0)
(102 219 2.2029381)
(102 219 1.8882326)
(102 219 2.8323488)
(102 219 2.5176435)
(102 219 3.1470544)
(102 219 3.4617598)
(102 218.04265 0)
(102 217.72354 0)
(102 217.40442 0)
(102 217.08531 0)
(102 216.76619 0)
(102 216.44708 0)
(102 216.12796 0)
(102 215.80885 0)
(102 215.48973 0)
(102 219 4.7205815)
(102 219 5.3499923)
(102 219 5.0352869)
(102 219 5.6646976)
(102 219 6.2941089)
(102 219 5.9794035)
(102 219 6.6088142)
(102 218.68088 8.4970465)
(102 215.48973 8.4970465)
(102 215.80885 8.4970465)
(102 216.44708 8.4970465)
(102 216.76619 8.4970465)
(102 215.17061 0)
(102 214.8515 0)
(102 214.53238 0)
(102 214.21327 0)
(102 213.89415 0)
(102 213.57504 0)
(102 213.25592 0)
(102 212.93681 0)
(102 212.61769 0)
(102 215.17061 8.4970465)
(102 212.61769 8.4970465)
(102 212.93681 8.4970465)
(103.57732 211.97946 8.4970465)
(103.89278 211.97946 8.4970465)
(102 213.57504 8.4970465)
(102 213.25592 8.4970465)
(102 213.89415 8.4970465)
(102 214.53238 8.4970465)
(102 214.21327 8.4970465)
(102 214.8515 8.4970465)
(104.20824 211.97946 8.4970465)
(104.5237 211.97946 8.4970465)
(104.83917 211.97946 8.4970465)
(105.15463 211.97946 8.4970465)
(105.4701 211.97946 8.4970465)
(105.78556 211.97946 8.4970465)
(106.10102 211.97946 8.4970465)
(106.41649 211.97946 8.4970465)
(106.73195 211.97946 8.4970465)
(107.04742 211.97946 8.4970465)
(107.36288 211.97946 8.4970465)
(107.67834 211.97946 8.4970465)
(102 216.12796 8.4970465)
(102 217.40442 8.4970465)
(102 217.08531 8.4970465)
(102 218.36177 8.4970465)
(103.89278 219 8.4970465)
(103.57732 219 8.4970465)
(109.25566 211.97946 8.4970465)
(109.57112 211.97946 8.4970465)
(109.88658 211.97946 8.4970465)
(110.20205 211.97946 8.4970465)
(110.51751 211.97946 8.4970465)
(110.83298 211.97946 8.4970465)
(111.14844 211.97946 8.4970465)
(111.4639 211.97946 8.4970465)
(111.77937 211.97946 8.4970465)
(112.09483 211.97946 8.4970465)
(112.41029 211.97946 8.4970465)
(112.72575 211.97946 8.4970465)
(113.04122 211.97946 8.4970465)
(113.35668 211.97946 8.4970465)
(113.67214 211.97946 8.4970465)
(113.98761 211.97946 8.4970465)
(114.30307 211.97946 8.4970465)
(115.24946 212.61769 8.4970465)
(115.24946 212.93681 8.4970465)
(115.24946 213.25592 8.4970465)
(113.67214 219 8.4970465)
(113.35668 219 8.4970465)
(115.24946 187.89415 8.4970465)
(115.24946 187.57504 8.4970465)
(115.24946 188.8515 8.4970465)
(115.24946 190.12796 8.4970465)
(115.24946 190.76619 8.4970465)
(115.24946 190.44708 8.4970465)
(115.24946 191.08531 8.4970465)
(115.24946 191.72354 8.4970465)
(115.24946 191.40442 8.4970465)
(113.04122 193 8.4970465)
(112.41029 193 8.4970465)
(112.72575 193 8.4970465)
(111.77937 193 8.4970465)
(112.09483 193 8.4970465)
(111.14844 193 8.4970465)
(111.4639 193 8.4970465)
(110.51751 193 8.4970465)
(110.83298 193 8.4970465)
(109.88658 193 8.4970465)
(110.20205 193 8.4970465)
(109.57112 193 8.4970465)
(107.9938 193 8.4970465)
(107.36288 193 8.4970465)
(107.67834 193 8.4970465)
(106.73195 193 8.4970465)
(107.04742 193 8.4970465)
(106.10102 193 8.4970465)
(106.41649 193 8.4970465)
(105.4701 193 8.4970465)
(105.78556 193 8.4970465)
(104.83917 193 8.4970465)
(105.15463 193 8.4970465)
(104.20824 193 8.4970465)
(104.5237 193 8.4970465)
(102.94639 193 8.4970465)
(103.26186 193 8.4970465)
(102 192.04265 8.4970465)
(102 191.72354 8.4970465)
(115.24946 167.89415 8.4970465)
(115.24946 167.57504 8.4970465)
(115.24946 168.8515 8.4970465)
(115.24946 170.12796 8.4970465)
(115.24946 170.76619 8.4970465)
(115.24946 170.44708 8.4970465)
(115.24946 171.08531 8.4970465)
(115.24946 171.72354 8.4970465)
(115.24946 171.40442 8.4970465)
(113.04122 173 8.4970465)
(112.41029 173 8.4970465)
(112.72575 173 8.4970465)
(111.77937 173 8.4970465)
(112.09483 173 8.4970465)
(111.14844 173 8.4970465)
(111.4639 173 8.4970465)
(110.51751 173 8.4970465)
(110.83298 173 8.4970465)
(109.88658 173 8.4970465)
(110.20205 173 8.4970465)
(109.57112 173 8.4970465)
(107.9938 173 8.4970465)
(107.36288 173 8.4970465)
(107.67834 173 8.4970465)
(106.73195 173 8.4970465)
(107.04742 173 8.4970465)
(106.10102 173 8.4970465)
(106.41649 173 8.4970465)
(105.4701 173 8.4970465)
(105.78556 173 8.4970465)
(104.83917 173 8.4970465)
(105.15463 173 8.4970465)
(104.20824 173 8.4970465)
(104.5237 173 8.4970465)
(102.94639 173 8.4970465)
(103.26186 173 8.4970465)
(102 172.04265 8.4970465)
(102 171.72354 8.4970465)
(115.24946 213.89415 8.4970465)
(115.24946 213.57504 8.4970465)
(115.24946 214.8515 8.4970465)
(115.24946 216.12796 8.4970465)
(115.24946 216.76619 8.4970465)
(115.24946 216.44708 8.4970465)
(115.24946 217.08531 8.4970465)
(115.24946 217.72354 8.4970465)
(115.24946 217.40442 8.4970465)
(113.04122 219 8.4970465)
(112.41029 219 8.4970465)
(112.72575 219 8.4970465)
(111.77937 219 8.4970465)
(112.09483 219 8.4970465)
(111.14844 219 8.4970465)
(111.4639 219 8.4970465)
(110.51751 219 8.4970465)
(110.83298 219 8.4970465)
(109.88658 219 8.4970465)
(110.20205 219 8.4970465)
(109.57112 219 8.4970465)