/*--------------------------------*- C++ -*----------------------------------*\
  =========                 |
  \\      /  F ield         | OpenFOAM: The Open Source CFD Toolbox
   \\    /   O peration     | Website:  https://openfoam.org
    \\  /    A nd           | Version:  8
     \\/     M anipulation  |
\*---------------------------------------------------------------------------*/
/*   Windows 32 and 64 bit porting by blueCAPE: http://www.bluecape.com.pt   *\
|  Based on Windows porting (2.0.x v4) by Symscape: http://www.symscape.com   |
\*---------------------------------------------------------------------------*/
FoamFile
{
    version     2.0;
    format      ascii;
    class       scalarListList;
    location    "constant/vegetation";
    object      F;
}
// * * * * * * * * * * * * * * * * * * * * * * * * * * * * * * * * * * * * * //


1059
(

2614
(
0.00015388855
0.00028699152
0.00020624573
0.00021393136
0.00015047658
0.00029724031
5.6177202e-05
7.7603847e-06
6.4130485e-05
1.2312907e-05
0.00025738361
1.872399e-06
9.2824558e-07
6.1553867e-07
0.0034568053
0.00016671972
0.00067720137
0.00014881527
1.402629e-05
0.001311224
0.00027147605
6.7373618e-05
5.7144422e-05
0.00050838199
1.2154338e-05
0.0003391267
1.3188709e-05
5.899453e-05
1.3197796e-05
7.5757594e-05
1.3994471e-05
1.2690339e-05
3.4555236e-05
1.6524368e-05
3.934133e-05
3.5912518e-05
0.00013089792
2.05165e-05
5.3167182e-05
2.1138489e-05
1.7900711e-05
5.0006138e-05
1.2729685e-05
2.1520722e-05
3.6629177e-05
3.1494105e-05
8.5375778e-06
1.0539421e-05
1.3320883e-05
5.3534609e-05
1.609323e-05
1.8869151e-05
1.742748e-05
1.6554691e-05
1.255226e-05
8.865294e-06
6.0311341e-05
1.1396942e-05
1.1160779e-05
0.0034119733
0.0012967864
0.00049642363
0.0005284128
0.00097504982
0.00039622575
0.00067080688
0.0094644596
0.0024139796
0.00079661829
0.0017486937
0.00014188194
9.1020909e-05
0.00024968445
0.00036064503
5.8731909e-05
9.5784816e-05
2.3537151e-05
1.3583652e-05
4.0845912e-06
1.6263638e-05
0.00033235693
0.00022695939
0.00067914661
7.8155015e-05
0.00010243901
2.4172072e-05
6.2595294e-05
7.3769354e-06
1.489977e-05
1.8549487e-05
3.5414022e-05
0.00013172613
3.3739941e-05
1.8212118e-05
2.8637777e-05
1.940166e-05
9.6097526e-06
8.0848724e-06
1.3129525e-05
1.0319487e-05
1.1655265e-05
3.1006736e-05
0.00010685239
9.2988234e-06
9.0718608e-06
2.1712309e-05
5.9672735e-06
0.00085072879
0.00028461084
0.00029438468
0.0018680293
0.00043687274
6.8242614e-06
6.0446394e-06
4.1177789e-06
5.9434651e-06
6.9517315e-06
6.4728988e-06
6.3623401e-06
5.5265446e-06
5.6429012e-06
7.1846037e-06
6.558074e-06
7.2239831e-07
8.0717214e-08
5.0289252e-06
1.6302951e-08
6.7031685e-06
1.4797533e-08
6.148325e-06
1.4462014e-08
5.8437741e-06
1.5366573e-08
7.0844316e-06
7.1492277e-07
6.5864764e-06
1.593291e-08
6.7561409e-07
6.3055184e-07
6.2541339e-06
1.5662949e-08
6.6402065e-07
5.3645148e-06
8.9084863e-09
5.8633073e-07
6.1976636e-07
5.7449681e-06
1.2103925e-08
5.9061192e-07
7.3494227e-07
7.2017439e-06
2.602503e-08
9.9339801e-07
6.1368273e-06
2.2983577e-07
1.2896126e-06
3.886359e-05
6.4035481e-07
6.8651965e-09
1.637473e-08
1.5100436e-08
1.4054414e-08
1.2405854e-08
7.0026687e-07
1.6187073e-08
6.8758015e-07
6.4149775e-07
1.5386209e-08
6.5264455e-07
3.2404273e-09
5.9592251e-07
6.0920835e-07
1.3432192e-08
5.9919998e-07
7.693852e-07
9.1446129e-09
8.4152365e-07
1.8164486e-06
7.8856773e-06
2.3373774e-05
2.1762033e-06
1.0777212e-05
1.2052903e-06
1.1984992e-06
1.1954111e-06
8.5624338e-06
9.1360386e-06
1.4165556e-06
1.2054552e-06
1.4331341e-06
9.374128e-06
9.7686924e-06
8.7950312e-06
1.0343975e-05
1.1405447e-05
8.4126166e-06
1.4323552e-06
1.423066e-06
8.4628734e-06
1.203832e-06
1.2029141e-06
1.0675249e-06
1.138829e-06
1.2658484e-06
1.1950403e-06
1.1161685e-06
1.1744733e-06
1.0569195e-06
1.0464425e-06
1.1007578e-06
1.0616697e-06
1.2094146e-06
1.2013912e-06
1.859748e-06
1.780733e-06
1.450548e-06
1.7447744e-06
1.8881003e-06
1.9878147e-06
2.141203e-06
2.0229593e-06
1.3055518e-06
1.6612485e-06
1.8906815e-06
2.5306767e-06
2.6003221e-06
2.1995115e-06
2.5505674e-06
2.5378109e-06
2.5950865e-06
6.2161657e-06
6.9365366e-06
6.2536114e-06
1.2050053e-06
1.2003828e-06
1.188864e-06
9.3383213e-06
1.3525907e-06
1.4222508e-06
9.6701074e-06
1.5339641e-06
1.4471854e-06
1.5943223e-06
1.3564907e-06
1.4112905e-06
1.6580971e-06
1.2541279e-06
1.3717127e-06
1.2058778e-06
1.68324e-06
1.4474569e-06
1.7316082e-06
1.7465468e-06
1.6187922e-06
1.7851577e-06
9.9372099e-06
1.9839835e-06
1.8728363e-06
1.7486051e-06
9.5944134e-06
1.8403123e-06
1.6078135e-06
2.3281009e-06
2.0685811e-06
2.3663035e-06
2.5780992e-06
1.4305214e-06
1.6782322e-06
1.6750711e-06
1.6658322e-06
1.4294458e-06
1.6737368e-06
1.2045247e-06
1.201788e-06
1.1735099e-06
1.2071324e-06
1.5784734e-06
8.901771e-06
1.5849418e-06
1.5903842e-06
8.9174002e-06
1.5862181e-06
1.0535931e-06
1.1229132e-06
1.398318e-06
1.6319918e-06
1.0992129e-06
1.3900442e-06
1.5612126e-06
1.5881457e-06
1.6721327e-06
1.7011961e-06
1.7918853e-06
1.8233585e-06
1.9239675e-06
1.962327e-06
2.1407383e-06
2.1677233e-06
1.3995775e-06
1.5722933e-06
1.4349578e-06
1.5938224e-06
1.431898e-06
1.592635e-06
1.4260743e-06
1.5814768e-06
1.2387686e-06
1.2162328e-06
1.1346627e-06
1.1543643e-06
1.0404735e-06
1.0884019e-06
1.0762848e-06
1.7970622e-06
1.8345955e-06
1.8096228e-06
1.7061649e-06
1.673508e-06
1.7014121e-06
1.8282203e-06
1.9199746e-06
1.9535187e-06
1.9257811e-06
2.0710643e-06
2.0971818e-06
1.9597082e-06
2.0590828e-06
1.3709719e-06
1.4825938e-06
2.7329013e-06
1.2530662e-05
1.3718237e-05
2.4606705e-06
2.8066666e-06
2.1189627e-06
2.2841607e-06
2.3964312e-06
2.4072126e-06
2.7329367e-06
2.5514195e-06
2.7646656e-06
2.5711689e-06
1.4351865e-05
1.4443463e-05
7.0071292e-06
6.7956586e-06
7.3024307e-06
7.5530824e-06
7.0503734e-06
6.8081708e-06
1.6327658e-06
1.6322678e-06
1.3554927e-06
1.3295412e-06
1.3499804e-06
1.5540831e-06
1.6567728e-06
1.6935055e-06
1.4391616e-06
1.620089e-06
1.6877341e-06
1.7097024e-06
1.4313251e-06
1.5904118e-06
1.6553803e-06
1.6766618e-06
1.6531318e-06
1.6760059e-06
1.643376e-06
1.6694308e-06
1.4279855e-06
1.5891456e-06
1.6719396e-06
1.6518291e-06
1.3736725e-06
1.3189667e-06
1.3980184e-06
1.4084156e-06
1.4998569e-06
1.495796e-06
1.4730583e-06
1.4322289e-06
1.401582e-06
1.625477e-06
1.3965022e-06
1.334914e-06
1.4272492e-06
1.5927845e-06
1.7814864e-06
1.4913333e-06
1.4233511e-06
1.6867469e-06
1.8080213e-06
1.7553159e-06
1.9412773e-06
1.6732061e-06
1.9065362e-06
1.6036749e-06
1.7768383e-06
1.4744171e-06
1.8086843e-06
1.5767602e-06
1.7524251e-06
2.3236256e-06
1.8865172e-06
2.2249951e-06
1.7642834e-06
2.4560203e-06
1.9404305e-06
2.4216985e-06
2.5454602e-06
1.3722819e-06
1.5804816e-06
1.5833949e-06
1.399648e-06
1.3827634e-06
1.5873984e-06
1.587289e-06
1.4007497e-06
1.3818044e-05
1.4870626e-05
1.4034349e-05
1.4404102e-05
1.438149e-05
1.4956655e-05
1.4427497e-05
1.4934699e-05
1.5743024e-06
1.5001682e-06
1.5354193e-06
1.615637e-06
1.6436445e-06
1.7307983e-06
1.7609835e-06
1.8557167e-06
1.8889795e-06
2.0081014e-06
2.0684543e-06
3.3232377e-06
1.1167285e-05
1.6182921e-05
1.4506902e-05
1.5469023e-06
1.5970317e-06
1.5920009e-06
1.5853277e-06
1.7666453e-06
1.736593e-06
1.6359265e-06
1.8600489e-06
1.8925049e-06
2.0310649e-06
1.9946328e-06
2.8192704e-06
2.1836432e-06
2.2777751e-06
2.7344422e-06
2.7416467e-06
7.600969e-06
7.8877304e-06
7.6153277e-06
7.8725482e-06
1.6029211e-06
1.4801275e-06
1.5243399e-06
1.6606407e-06
1.6047861e-06
1.6699053e-06
1.5913428e-06
1.6547656e-06
1.6541053e-06
1.6477194e-06
1.5875455e-06
1.6501355e-06
1.3583238e-06
1.3808506e-06
1.4822395e-06
1.4560087e-06
1.621034e-06
1.5614878e-06
1.9323934e-06
1.7202825e-06
1.679739e-06
2.1194824e-06
1.659892e-06
1.6303557e-06
1.5201114e-06
1.5456418e-06
1.9110446e-06
2.1460005e-06
2.2615269e-06
2.8333663e-06
1.3937392e-06
1.3954642e-06
1.3999482e-06
1.3990259e-06
7.7862067e-06
0.00048026993
1.4555265e-05
1.3973011e-05
1.4080185e-05
1.4605397e-05
1.4018569e-05
1.4672736e-05
1.4146357e-05
1.4800713e-05
1.474042e-05
1.4211894e-05
1.3997958e-05
1.4819128e-05
1.4019167e-05
1.4753583e-05
1.3995052e-05
1.4331968e-05
1.484882e-05
1.4274753e-05
1.4894369e-05
1.3890204e-05
1.4081216e-05
1.4148266e-05
1.4013588e-05
1.3948184e-05
1.3982463e-05
1.3983942e-05
1.3974936e-05
1.3943529e-05
1.4280595e-05
1.421385e-05
1.5070239e-05
1.514198e-05
0.00046401016
0.0002512184
0.00032834922
0.00015137917
0.00079848971
0.00049947801
0.00060951533
0.00056113645
0.00051885927
0.00040800073
5.321165e-05
6.2099706e-05
7.7159094e-05
0.00094411634
0.00032765308
4.8643112e-05
4.8981209e-05
0.00011828924
8.4876948e-05
0.0014271899
0.0025424341
0.0009139755
0.0010149123
0.00068958617
2.7050769e-05
1.3955403e-05
2.7780168e-05
3.3665753e-05
3.4627978e-05
2.4978629e-05
2.4182381e-05
3.012789e-05
3.0966396e-05
3.7288429e-05
6.6016143e-08
2.6346832e-05
5.0445437e-06
1.9364234e-05
6.8481601e-08
2.8535842e-05
8.2766508e-08
3.2733621e-05
8.3106379e-08
3.5610239e-05
2.8470041e-06
2.5665433e-05
4.2131031e-08
2.7117635e-06
5.6451767e-06
2.2837017e-05
2.7452657e-08
2.8029418e-06
2.9237325e-06
2.9317635e-05
7.4804848e-08
3.1737762e-06
3.5509297e-06
3.1834811e-05
7.6903991e-08
3.2629599e-06
3.6581361e-06
3.6559649e-05
3.0983464e-08
4.258412e-06
6.252063e-08
6.928329e-07
7.0645194e-08
8.1057806e-08
7.8729928e-08
2.7771744e-06
5.58521e-08
2.7239852e-06
3.744724e-06
7.8203469e-08
3.1035934e-06
3.0042269e-06
7.2727517e-08
3.0875637e-06
3.4509314e-06
7.9011656e-08
3.3553173e-06
3.7825689e-06
6.190288e-08
3.9538204e-06
7.119433e-06
4.2364999e-05
4.408808e-05
7.2619736e-06
5.221318e-05
5.3109296e-05
4.77196e-05
4.0470548e-05
5.6030186e-05
5.856529e-05
4.2201027e-05
4.9891553e-05
7.1556975e-06
3.9758948e-05
7.2601253e-06
3.9193305e-05
5.0669367e-06
4.8714422e-06
6.3453238e-06
4.9369335e-06
7.3788762e-06
8.1748666e-06
8.7515589e-06
8.2601457e-06
5.186379e-06
5.6262247e-06
6.3007607e-06
5.7846254e-06
6.5109335e-06
7.5062757e-06
1.1311013e-05
1.2615803e-05
1.0954633e-05
1.003793e-05
8.9744458e-06
9.7561689e-06
3.4840002e-05
3.0015632e-05
2.957786e-05
3.5408925e-05
7.7623418e-06
6.7407902e-06
6.4223425e-06
7.3657728e-06
6.2614837e-06
6.4734778e-06
7.5694226e-06
8.2309515e-06
8.3101674e-06
7.3208104e-06
7.9709899e-06
8.1591659e-06
1.1156779e-05
5.5534803e-05
1.1303989e-05
5.5841561e-05
1.1401792e-05
1.1336317e-05
4.7625654e-05
7.6607022e-06
7.0266219e-06
4.5036815e-05
6.3025963e-06
6.8336327e-06
1.1220543e-05
8.0503055e-06
9.8808969e-06
1.0642226e-05
1.1597928e-05
1.2691864e-05
8.3232405e-06
4.7002448e-05
9.0457782e-06
1.0162328e-05
4.9749976e-05
9.307237e-06
7.2227949e-06
7.8170607e-06
7.9000075e-06
7.2374899e-06
7.9479573e-06
7.9168289e-06
7.4385783e-06
4.1835939e-05
7.4038172e-06
7.313222e-06
4.1644126e-05
7.3879485e-06
1.112984e-05
1.0115336e-05
9.8229448e-06
9.0104093e-06
8.7585205e-06
8.0542527e-06
7.8358532e-06
7.2575644e-06
7.1204375e-06
8.3288319e-06
7.0616313e-06
7.3648298e-06
7.2651082e-06
7.5365678e-06
7.1826987e-06
7.4170004e-06
7.2559323e-06
7.5323523e-06
4.9720416e-06
4.901483e-06
5.4617686e-06
5.1626615e-06
7.2321047e-06
7.6184068e-06
8.0782914e-06
7.759373e-06
8.4404218e-06
8.5575997e-06
7.8657652e-06
8.3922119e-06
5.3249443e-06
5.4730322e-06
6.1184626e-06
5.9486902e-06
6.7635667e-06
7.0754454e-06
1.0902758e-05
1.1710312e-05
1.214893e-05
1.2023491e-05
1.0583609e-05
1.0632964e-05
9.7053829e-06
1.0329998e-05
8.6738346e-06
9.2218108e-06
9.4334689e-06
9.48443e-06
3.5976321e-05
3.8286666e-05
3.4535825e-05
3.2625825e-05
3.4014922e-05
3.246895e-05
3.8491685e-05
3.6546542e-05
7.7788998e-06
7.6258041e-06
6.9532779e-06
6.4766107e-06
6.5268726e-06
7.2562267e-06
7.2783078e-06
7.60868e-06
7.977613e-06
8.0141717e-06
8.0748871e-06
8.0789768e-06
7.2046484e-06
7.492749e-06
7.8441897e-06
7.8515191e-06
7.9286208e-06
7.8786319e-06
7.2485211e-06
7.5080314e-06
7.9717038e-06
7.9378713e-06
7.9452071e-06
7.9293627e-06
6.4503985e-06
7.4856942e-06
6.3963495e-06
6.1830689e-06
6.5135966e-06
7.3156762e-06
6.6308887e-06
7.8792305e-06
8.3236721e-06
7.0391527e-06
8.4047779e-06
8.1877357e-06
1.1209968e-05
9.2429964e-06
1.1264453e-05
9.5150805e-06
1.1374721e-05
9.4440314e-06
1.1361604e-05
9.5411501e-06
7.4317754e-06
7.4965333e-06
7.2272097e-06
6.9745084e-06
6.4651662e-06
6.1636222e-06
6.6477017e-06
6.788924e-06
1.1384926e-05
9.3951826e-06
8.7019121e-06
7.9301332e-06
1.1125691e-05
9.3805938e-06
1.1395214e-05
9.07594e-06
1.2057685e-05
9.7091992e-06
1.2170029e-05
1.2512337e-05
8.5469076e-06
7.0250273e-06
8.7938494e-06
7.7595339e-06
9.8566185e-06
8.5789202e-06
9.5793168e-06
7.9763763e-06
6.4405697e-06
7.4221901e-06
7.4164307e-06
6.5111455e-06
6.3303287e-06
7.3397695e-06
7.3682824e-06
6.4971952e-06
1.0755145e-05
1.0423361e-05
9.5419266e-06
9.2715512e-06
8.5153689e-06
8.2807822e-06
7.6269094e-06
7.4314975e-06
6.9946518e-06
6.6716083e-06
7.2573978e-06
7.5447569e-06
7.4491723e-06
7.5274719e-06
7.255143e-06
7.6543189e-06
8.2215852e-06
8.0253376e-06
1.1243201e-05
1.1613132e-05
1.0279434e-05
9.9871637e-06
8.9176178e-06
9.1711563e-06
3.9207417e-05
3.7244658e-05
3.705939e-05
3.9410438e-05
7.6322035e-06
7.0111227e-06
7.2823754e-06
7.5652248e-06
7.9904688e-06
8.0204096e-06
7.4733328e-06
7.8810459e-06
7.9076014e-06
7.5195457e-06
7.9660365e-06
7.957585e-06
7.4374899e-06
7.1744478e-06
8.8455143e-06
7.8217818e-06
8.0481113e-06
9.8689088e-06
9.4231105e-06
9.462148e-06
9.5592416e-06
9.5442131e-06
7.3668809e-06
7.1672992e-06
6.4133547e-06
6.5848508e-06
1.0747442e-05
9.7488518e-06
1.2693335e-05
1.1001151e-05
1.1369957e-05
1.4251741e-05
7.3209283e-06
7.5210979e-06
8.4342623e-06
8.2010162e-06
6.5186143e-06
6.509974e-06
6.4453664e-06
6.4660982e-06
0.0022134342
0.00098623448
0.00012148967
0.00011691211
0.00015833812
0.00016453914
3.252546e-05
3.0666681e-05
3.0059187e-05
3.3155851e-05
3.5066032e-05
3.5707191e-05
0.00015223044
3.0180742e-05
2.8454045e-05
0.000170819
3.0766259e-05
3.2540911e-05
0.00014623646
2.7889867e-05
0.00017715611
3.3136466e-05
2.7152658e-05
2.7699786e-05
2.9373567e-05
2.9941121e-05
3.1660582e-05
3.2238175e-05
0.00012612781
0.00013084664
0.00011240267
3.142952e-05
3.1901834e-05
3.1282076e-05
2.963581e-05
2.9049532e-05
3.2037798e-05
3.3789207e-05
3.4424931e-05
3.388082e-05
3.635264e-05
3.4499385e-05
0.00013080924
0.0001284502
0.00010797737
2.9601346e-05
2.5909353e-05
2.9025738e-05
2.4410019e-05
3.1354184e-05
2.6395512e-05
3.1945772e-05
2.7935912e-05
2.3941659e-05
3.3736167e-05
2.8431127e-05
2.825398e-05
2.8812058e-05
3.0511291e-05
3.1083541e-05
3.2817938e-05
0.00013583578
3.082775e-05
3.0229684e-05
3.2648909e-05
3.3262281e-05
3.5122075e-05
0.00014087124
0.00014002645
2.539519e-05
2.4917296e-05
2.6916746e-05
2.740882e-05
2.8962194e-05
0.017318212
0.00097081828
0.0014909667
7.7116213e-05
0.0041352785
0.00037768266
0.00020171673
0.00064729947
8.5955249e-05
4.2611179e-05
0.0039000576
5.6388382e-05
7.0182391e-05
0.00015972892
3.7254048e-05
9.6967111e-05
7.1788211e-05
0.00040920979
0.00023483471
0.00077828517
0.0035558309
0.00013066491
0.00021077631
7.2548402e-05
3.9440759e-05
0.00014651643
0.00022002269
4.556942e-05
7.1219788e-05
3.6552152e-05
0.00016564527
6.3395029e-05
4.995521e-05
7.7561692e-05
3.8828907e-05
3.9031055e-05
0.00036800813
3.7461087e-05
0.00012139449
4.2446372e-05
4.4423329e-05
3.7843828e-05
0.00013206365
0.00014334685
3.4394861e-05
0.00012313412
0.00015559361
0.0035267709
0.013504101
0.0041401805
0.0014135462
0.00011505211
0.00013545179
0.00013153823
3.6900383e-05
1.7463185e-05
6.9087892e-05
2.0994451e-05
0.00011344298
3.0930201e-07
0.00013371105
0.0001131346
0.00013510126
1.0761767e-07
1.5476641e-05
3.2546711e-05
9.6010227e-08
4.9091439e-06
8.8220602e-06
2.9877027e-05
2.0702146e-05
6.3151986e-06
2.0989632e-05
2.5131606e-06
2.7952732e-07
2.2802696e-07
1.194226e-05
7.7253237e-07
6.0018004e-06
0.0001394945
0.00020234516
0.00019650943
0.00022351143
0.00018994379
0.00018353667
2.7143175e-05
4.4886376e-05
1.2626841e-05
4.4619496e-05
1.2561113e-05
1.2353743e-05
4.3815923e-05
4.4476062e-05
1.2524826e-05
2.8778652e-05
8.1468546e-06
1.2257464e-05
4.3456532e-05
3.6525234e-05
1.0320908e-05
4.2766867e-05
4.08563e-05
3.8289891e-05
4.0219488e-05
3.7642787e-05
4.5028203e-05
1.2663731e-05
4.6037735e-05
1.2944931e-05
4.3487288e-05
4.592182e-05
4.6146245e-05
1.2972707e-05
0.00014026685
0.00013552678
4.1433751e-05
4.115501e-05
0.00020133795
3.9712383e-05
3.7920476e-05
4.2165615e-05
4.0950466e-05
4.6198565e-05
4.0440179e-05
4.1022588e-05
4.06615e-05
3.5778983e-05
0.00019634335
3.553554e-05
3.7329338e-05
3.4935201e-05
3.3979524e-05
3.4561918e-05
3.6298636e-05
3.6872806e-05
3.8566817e-05
3.9121684e-05
4.0911782e-05
4.1392012e-05
1.1492519e-05
4.0548903e-05
1.187712e-05
4.3520374e-05
4.4046667e-05
4.0585285e-05
1.1878992e-05
4.5615937e-05
4.3545996e-05
4.0472387e-05
1.1843898e-05
4.3212341e-05
4.5270895e-05
4.0464226e-05
1.1842994e-05
4.3179775e-05
4.4808762e-05
4.0260057e-05
1.1790531e-05
4.4730345e-05
4.29512e-05
4.0128959e-05
1.1754999e-05
4.2811827e-05
4.4296771e-05
1.1592253e-05
3.9540665e-05
4.2163048e-05
4.4076876e-05
1.1508964e-05
3.9244375e-05
4.1775661e-05
4.2702324e-05
3.6753211e-05
1.0795112e-05
4.0795066e-05
3.6401387e-05
3.431183e-05
1.0092784e-05
3.049556e-05
0.00014792184
1.2458365e-05
1.2607806e-05
1.2401132e-05
1.2588662e-05
1.2188926e-05
1.2422132e-05
1.2478882e-05
1.2364419e-05
8.8500059e-06
1.208181e-05
1.2049474e-05
1.1516758e-05
1.054586e-05
4.1284545e-05
4.2117195e-05
4.1489201e-05
3.9466728e-05
3.6990992e-05
3.8934812e-05
3.9578036e-05
3.8851829e-05
3.6366717e-05
3.699809e-05
1.2465818e-05
1.2729811e-05
1.2825925e-05
1.2565925e-05
4.1888183e-05
4.4289625e-05
4.5130312e-05
4.3800663e-05
1.2362535e-05
1.2569045e-05
0.00014498999
0.00014594847
4.1321777e-05
3.5067569e-05
4.1261804e-05
3.5397158e-05
4.3869843e-05
3.6062758e-05
4.5545785e-05
4.5227055e-05
4.0649579e-05
4.0864021e-05
3.528674e-05
4.126251e-05
4.0317903e-05
3.9079843e-05
3.3576591e-05
3.851406e-05
3.2553e-05
4.3129289e-05
3.5001435e-05
3.6134604e-05
3.0490918e-05
3.6732555e-05
3.2058975e-05
3.4335079e-05
2.9992803e-05
3.3399346e-05
3.5142437e-05
3.5720965e-05
3.7441766e-05
3.8007469e-05
3.9680871e-05
4.0263312e-05
4.002783e-05
1.2349818e-05
4.123216e-05
1.1395392e-05
1.139016e-05
3.8751802e-05
4.1572317e-05
1.1847251e-05
4.0483793e-05
4.335311e-05
1.1841906e-05
4.0467073e-05
4.3256987e-05
1.1834524e-05
4.0428221e-05
4.3131883e-05
1.1817024e-05
4.0360311e-05
4.3056846e-05
1.1710647e-05
3.9967081e-05
4.2638949e-05
1.1657185e-05
3.9773459e-05
4.2428703e-05
1.1387155e-05
3.8815728e-05
4.1066185e-05
1.1179289e-05
3.8089415e-05
3.9560011e-05
1.2447103e-05
1.2428672e-05
1.2261367e-05
1.2318344e-05
1.1882056e-05
1.1451806e-05
4.0682364e-05
4.007625e-05
3.7613163e-05
3.8233708e-05
3.5744763e-05
1.2477002e-05
1.2505285e-05
4.2503045e-05
4.314023e-05
1.2009761e-05
3.5488569e-05
3.5420867e-05
4.2289709e-05
5.3074985e-05
3.3504928e-05
3.302016e-05
4.1693536e-05
3.10252e-05
3.152202e-05
2.9459689e-05
0.0014909027
0.0023623511
0.0020663268
0.0071981401
6.006878e-05
0.00013089921
0.0001894955
6.3171173e-05
2.2883203e-05
4.7176196e-05
3.2572531e-05
0.00082604217
0.0010079295
9.7873985e-05
5.3642575e-05
0.00026613276
0.00017282582
0.00019300015
0.00010373636
0.00029488328
5.2202225e-05
4.5797924e-05
0.00012301911
7.0115243e-05
4.887829e-05
6.3789891e-05
5.0340796e-05
0.00011557139
8.9647998e-05
0.00022894347
4.0587639e-05
4.3440595e-05
2.1127045e-05
1.7002018e-05
9.5195546e-06
5.8427765e-05
2.6891224e-05
1.2488388e-05
0.0022342156
0.00091655582
0.002742942
0.00048236452
0.00043678381
8.862806e-05
4.2344188e-05
1.9383924e-06
0.00011283391
1.6552352e-05
0.00012236843
6.9697481e-06
1.4050224e-05
9.4051329e-06
2.2131098e-05
1.6277582e-07
1.4532552e-08
1.6979671e-08
6.7085581e-09
1.0590934e-08
8.3856719e-07
4.1512503e-09
1.2684574e-06
2.1231644e-08
1.3678193e-08
1.7700404e-08
6.6755398e-09
1.1443946e-08
5.631005e-06
1.1074624e-08
1.1454724e-06
1.4455804e-06
1.3649393e-06
1.7230396e-06
1.819578e-06
9.3708239e-07
9.3511158e-07
1.0931786e-06
1.1547137e-06
2.533584e-06
2.2127351e-06
3.9789432e-06
1.7828748e-05
1.8888891e-05
1.151708e-05
1.2136478e-05
2.9928479e-05
2.879836e-05
9.2788417e-06
1.5057478e-05
2.2569303e-05
9.8467847e-06
1.4253073e-05
2.3992473e-05
1.1831648e-07
1.474894e-05
2.4348317e-08
2.4499598e-05
1.1889172e-06
6.9058908e-06
1.5315245e-08
1.6840343e-05
1.6224351e-08
2.0027531e-05
1.0935382e-05
8.1861815e-09
1.279645e-05
9.6473692e-09
2.8198815e-05
8.4449158e-08
2.7185534e-05
3.2639438e-08
1.6841776e-06
8.4823725e-06
3.0903615e-09
1.5917764e-05
1.2953956e-08
2.1251823e-05
1.7726869e-08
1.0383703e-05
6.5405471e-09
1.3500353e-05
1.2159603e-08
1.3897821e-05
4.2150929e-06
2.5531961e-05
1.6033206e-08
1.0655007e-06
1.5313511e-06
1.2902719e-06
1.6240383e-06
1.9239064e-06
9.8242666e-07
9.9749257e-07
1.0362065e-06
1.2199669e-06
3.2233465e-06
2.0516834e-06
1.3364607e-05
1.3470073e-05
2.0642875e-05
1.4498496e-05
2.3296862e-05
1.5585683e-05
5.0234935e-05
2.6072379e-05
5.0399702e-05
2.4469611e-05
2.5896313e-05
3.1137929e-05
2.8158348e-05
3.3756938e-05
3.3222142e-05
3.168302e-05
3.29244e-05
3.7962943e-05
3.3820186e-05
3.3586675e-05
3.2815202e-05
3.5014592e-05
2.9504404e-05
3.8103983e-05
3.8090977e-05
3.8028723e-05
3.7406716e-05
3.5679254e-05
3.7070892e-05
2.4598141e-05
4.5361626e-05
4.0926405e-05
4.3073617e-05
3.6912499e-05
1.5997381e-05
2.5187055e-05
1.405003e-05
2.9474273e-05
3.4058379e-05
3.8805038e-05
3.1470981e-05
3.24399e-05
3.8121827e-05
4.2348715e-05
4.2965632e-05
3.8102844e-05
3.7887314e-05
4.2180178e-05
3.7679339e-05
4.149127e-05
3.6214465e-05
3.9583459e-05
3.6674065e-05
4.1125808e-05
1.0988068e-05
1.2467158e-05
3.0470343e-05
1.2107947e-05
2.9556902e-05
1.3854689e-05
3.3638117e-05
1.377425e-05
3.3460332e-05
1.3195091e-05
3.2155068e-05
1.3376654e-05
3.2568291e-05
1.3953614e-05
3.3828697e-05
1.3997305e-05
3.3770794e-05
8.8280464e-06
8.2323382e-06
6.7576619e-06
6.340831e-06
5.2507629e-06
4.9565054e-06
4.1607832e-06
3.9219826e-06
3.3322838e-06
3.1577794e-06
2.7134117e-06
2.6712037e-06
2.6439226e-05
2.7049831e-06
3.8003809e-05
2.5064216e-06
1.3945361e-05
1.6977264e-05
2.6082062e-06
1.3873354e-05
1.6478883e-05
1.6866244e-05
1.8356844e-05
2.1335371e-05
1.6376237e-05
1.6975919e-05
1.9061383e-05
1.0571964e-05
1.1781087e-05
1.123336e-05
2.69941e-05
2.6096015e-05
3.0355903e-05
2.7139104e-05
4.3316885e-05
2.4501082e-05
2.4615109e-06
1.1922382e-05
2.6641331e-06
3.1395527e-05
5.28936e-05
3.2285568e-05
2.9267048e-05
2.6951156e-05
3.0300555e-05
5.2060302e-05
3.0734431e-05
3.188247e-05
2.7272494e-06
2.4139061e-06
2.6265689e-06
2.4241525e-05
1.0260966e-05
1.1712231e-05
1.1383026e-05
5.6637208e-06
5.4363977e-06
4.2274667e-06
4.5608502e-06
2.6207913e-06
2.9654459e-06
3.6738994e-06
3.4637119e-06
6.9990699e-06
7.4167817e-06
9.6225575e-06
9.077806e-06
1.2155992e-05
1.2528139e-05
3.1383991e-05
3.7831915e-05
4.5223139e-05
4.1896026e-05
4.1131066e-05
4.0429641e-05
3.8592273e-05
4.0080057e-05
2.7627051e-06
2.7554024e-06
2.9562707e-06
3.0813791e-06
2.5785202e-06
2.4935495e-06
2.6954433e-06
2.7148924e-06
2.3565409e-05
2.3441726e-06
2.6365773e-05
2.2381614e-05
2.3443039e-06
3.4307596e-05
1.2001303e-05
2.2474906e-06
2.2699952e-06
4.5881078e-05
9.1669014e-06
5.2594988e-05
9.9761902e-06
9.3413949e-06
1.80348e-05
1.0004497e-05
1.9391929e-06
2.3003454e-06
1.6406952e-05
2.5012205e-06
2.3277025e-06
2.5115745e-06
2.3955775e-05
2.5822998e-06
2.168951e-06
2.7319888e-06
3.2877458e-06
1.7798988e-05
2.5803995e-06
2.3467484e-06
3.2989238e-06
2.0849929e-06
1.5154819e-05
2.4064855e-06
1.4633814e-05
2.3798803e-06
1.4529365e-05
1.6550123e-06
1.850289e-06
2.316944e-06
2.4376905e-06
2.4991202e-06
1.740347e-06
2.0559e-06
8.6021594e-06
8.9186423e-06
9.8257944e-06
9.7378725e-06
5.878033e-06
3.2703258e-05
3.4990133e-06
3.4894893e-05
5.9951901e-06
5.260772e-06
3.9704931e-06
4.9633008e-06
2.3404809e-06
3.294749e-06
4.5707913e-06
3.4425898e-06
7.7251805e-06
8.1961379e-06
5.7391949e-05
1.0626183e-05
8.7363607e-06
1.1597628e-05
1.4624097e-05
1.6396238e-05
2.3071743e-05
1.6162689e-05
4.3599575e-05
4.1198639e-05
4.2582818e-05
4.1553966e-05
2.3553267e-05
4.1613256e-05
1.0751901e-05
1.4265508e-05
3.7623529e-05
3.5501637e-05
4.2524381e-05
4.2717955e-05
4.2006033e-05
4.178532e-05
4.0184183e-05
4.0691022e-05
1.0393154e-05
1.2749709e-05
1.1589441e-05
1.3908061e-05
1.3666821e-05
1.2988103e-05
1.3533984e-05
1.393575e-05
1.4113611e-05
9.5501051e-06
7.7022416e-06
7.209505e-06
5.9461773e-06
5.579178e-06
4.6817059e-06
4.4164894e-06
3.7071662e-06
3.5140947e-06
2.9969576e-06
2.8551719e-06
2.0947997e-05
2.4068734e-05
2.1362957e-05
2.6777883e-06
2.3414642e-06
2.9465912e-05
2.7227257e-05
3.0632585e-05
4.4952114e-06
2.6881732e-06
2.342993e-06
5.3782029e-06
7.483538e-06
2.2167934e-06
2.5552836e-06
2.2883037e-06
2.5857591e-06
1.0847178e-05
8.7755991e-06
1.1833396e-05
9.9639936e-06
9.5091736e-06
1.1060293e-05
4.2540933e-06
3.1278029e-06
3.3391817e-06
2.4772392e-06
7.5505679e-06
1.1868302e-05
9.8842432e-06
1.8683508e-06
2.3359279e-06
2.6544177e-06
2.3425714e-06
2.751788e-06
2.168473e-06
2.2262835e-06
2.30382e-06
2.6419096e-06
8.3445538e-06
8.5005219e-06
9.7605447e-06
9.9053112e-06
1.1622842e-05
9.6271701e-06
1.1513251e-05
6.0205371e-06
5.6321647e-06
6.4573805e-06
5.1553455e-06
3.9950913e-06
4.2066934e-06
5.3954184e-06
4.8613772e-06
2.222596e-06
2.7524593e-06
3.1149039e-06
3.1394577e-06
3.8528278e-06
3.7623773e-06
3.5917188e-06
3.2942122e-06
6.5278782e-06
7.179137e-06
7.679214e-06
7.9156897e-06
1.0508254e-05
9.6391373e-06
1.0780703e-05
8.5168955e-06
1.0139035e-05
1.2692448e-05
1.177673e-05
1.3150383e-05
1.8617666e-05
1.6779171e-05
1.900598e-05
2.0492282e-05
2.3823081e-05
2.113865e-05
1.6648649e-05
1.8262064e-05
1.8820679e-05
3.4956437e-05
3.6666594e-05
4.4563952e-05
4.3200935e-05
4.0928192e-05
4.0712047e-05
3.9173411e-05
3.9661931e-05
1.8791704e-06
2.7736953e-06
2.5262436e-06
2.5178439e-06
2.7445469e-06
2.4305726e-06
2.3005912e-06
2.9018275e-06
3.0766648e-06
2.8295845e-06
3.061576e-06
3.8700996e-06
3.1326439e-06
2.6361259e-06
2.3161608e-06
2.322842e-06
2.2497644e-06
1.557176e-06
1.5268574e-06
2.6713607e-06
2.4660072e-06
2.7311828e-06
2.4831634e-06
1.8428269e-06
1.9413526e-06
4.1550937e-06
3.7337337e-06
4.4116461e-06
3.3699401e-06
2.2111683e-06
6.2316599e-06
2.7906451e-06
4.8915963e-06
7.0144354e-06
6.1093818e-06
5.7338269e-06
3.7445644e-06
3.2051552e-06
1.9209639e-06
3.2540529e-06
1.5876515e-06
2.5122648e-06
3.2162035e-06
3.3356405e-06
2.7488275e-06
7.3360241e-06
5.8688835e-06
3.6941764e-06
0.002136305
0.017739022
0.002991726
7.7148514e-05
0.0017532785
9.753265e-05
0.00034056344
0.00067677837
9.1323496e-05
0.00050487681
0.013192484
0.0057618824
0.00044104618
0.0011047641
0.00014932847
8.593298e-05
0.0013327599
0.00038721436
0.00030853567
0.00071217758
0.00040747491
0.00024976776
9.4911429e-05
8.5181034e-05
0.00016673579
0.00086151747
0.00020853532
8.2094904e-05
9.728289e-05
9.0143179e-05
7.6536982e-05
0.028547711
0.0072550843
0.00023560793
0.00024490052
0.00020420978
0.00017526351
5.4596381e-07
0.00022665233
6.1417874e-07
0.00025463142
2.6212674e-05
0.00021732442
7.6264394e-07
2.9319313e-05
0.00015179009
6.2580524e-06
3.5465485e-05
2.7056089e-05
4.1572948e-07
6.5401708e-07
2.5832357e-05
2.8831139e-07
2.6540281e-05
4.5168325e-05
5.5332274e-05
2.8107338e-05
0.00041678578
0.00041960728
0.0003962706
0.00046632282
0.00040403524
0.0004558645
7.4940994e-05
6.3584655e-05
4.7135979e-05
4.9625254e-05
5.2730656e-05
7.6267768e-05
7.9278492e-05
8.1136215e-05
7.9969983e-05
8.2194414e-05
8.1403604e-05
8.2501687e-05
9.1064211e-05
8.6463891e-05
4.8517377e-05
9.4528862e-05
0.00032399088
0.00030515418
7.4522577e-05
5.9031717e-05
6.4410056e-05
7.9876159e-05
0.00043822158
7.8632696e-05
7.4923541e-05
0.00042990392
7.7933433e-05
8.1275448e-05
8.6307587e-05
8.7974798e-05
5.9812139e-05
8.828911e-05
8.3103776e-05
7.9561643e-05
7.1640923e-05
6.8045127e-05
7.5497878e-05
7.3095352e-05
6.98078e-05
6.8197471e-05
4.6580052e-05
4.7308392e-05
6.3102236e-05
7.6853916e-05
7.7419143e-05
7.9830441e-05
7.8428817e-05
8.1549662e-05
8.0870396e-05
8.05059e-05
8.0499573e-05
8.251771e-05
7.7366312e-05
8.1581789e-05
8.1735682e-05
8.1775809e-05
8.2120436e-05
8.6874859e-05
8.8621924e-05
8.0685152e-05
8.7398897e-05
5.0376909e-05
9.0508453e-05
9.8698859e-05
0.00034926832
0.00034225659
7.4786221e-05
6.4849385e-05
6.0546021e-05
5.9167354e-05
7.2533956e-05
6.2984833e-05
7.9531897e-05
6.8768934e-05
7.9179723e-05
6.8765492e-05
7.6035552e-05
6.438471e-05
7.708151e-05
6.8158706e-05
8.4366878e-05
7.0884784e-05
8.6979576e-05
7.4251637e-05
8.7275433e-05
8.8571272e-05
6.2081443e-05
5.9358476e-05
9.2104371e-05
7.4861863e-05
8.6921013e-05
7.6406313e-05
7.3830749e-05
9.6609597e-05
7.3824087e-05
7.1553341e-05
7.8007782e-05
7.8997277e-05
8.1367698e-05
8.1019917e-05
8.2368209e-05
8.1515792e-05
8.1479311e-05
8.3947118e-05
8.2019068e-05
9.4590737e-05
7.3456031e-05
6.8779575e-05
8.6230266e-05
6.947413e-05
6.9131116e-05
6.6362395e-05
6.7232473e-05
8.3173268e-05
8.4529402e-05
0.00010461922
6.2554402e-05
7.9286104e-05
0.0018480857
0.0031816029
0.0026513615
0.27867623
0.0042569022
0.0057129127
0.031312982
0.082332355
0.051036073
0.0053047401
0.0013461155
0.0077738028
0.00065872583
0.00031473526
0.0010106854
0.0005424345
0.00039110836
0.019553954
0.00028203796
0.00072838916
0.0015639628
0.00027313883
0.00069081836
0.0011412181
0.00053842921
0.00053655584
0.00026683549
0.0013212347
0.0014569719
0.00051330277
0.00017514688
0.00012889077
0.00096415143
0.02250528
0.015490095
0.18502238
0.010739394
0.0087088358
0.00032034055
0.0003175039
0.00033223022
0.00014516699
0.00027526003
0.00028607799
0.00037831504
0.00036799367
6.073045e-05
7.5138063e-05
7.9244255e-05
6.7144156e-06
0.00037573801
5.158518e-05
5.0550262e-05
1.1642814e-07
2.7023002e-07
1.589215e-05
5.9654274e-08
8.3386226e-07
0.00030864605
8.6146738e-07
0.00034427597
1.0408285e-07
3.0267731e-07
2.184301e-05
8.3993218e-08
0.00026476645
7.1484959e-07
3.0473699e-05
3.5748808e-05
0.00029722171
7.4442745e-07
3.173255e-05
0.00038450425
6.5456378e-07
4.348228e-05
3.7151626e-05
0.00035632224
8.4654749e-07
4.1619244e-05
6.4649355e-06
5.0720957e-05
1.5002053e-05
1.3697707e-05
2.3234528e-05
2.794181e-05
1.3168603e-05
1.258917e-05
0.00018209684
0.00019939914
7.7933069e-05
9.6114721e-05
0.0001395145
0.00025992819
0.00012796753
0.00027347738
5.2062241e-05
5.5718599e-07
0.00015978535
1.2161738e-07
0.00016643584