/*--------------------------------*- C++ -*----------------------------------*\
  =========                 |
  \\      /  F ield         | OpenFOAM: The Open Source CFD Toolbox
   \\    /   O peration     | Website:  https://openfoam.org
    \\  /    A nd           | Version:  8
     \\/     M anipulation  |
\*---------------------------------------------------------------------------*/
/*   Windows 32 and 64 bit porting by blueCAPE: http://www.bluecape.com.pt   *\
|  Based on Windows porting (2.0.x v4) by Symscape: http://www.symscape.com   |
\*---------------------------------------------------------------------------*/
FoamFile
{
    version     2.0;
    format      ascii;
    class       labelListList;
    location    "constant/vegetation";
    object      globalFaceFaces;
}
// * * * * * * * * * * * * * * * * * * * * * * * * * * * * * * * * * * * * * //


1059
(

2614
(
17
18
19
20
21
22
23
988
989
1007
1028
1029
1071
1073
2014
2015
2016
2018
2021
2028
2029
2030
2031
2036
2039
2040
2041
2042
2043
2044
2045
2046
2047
2048
2049
2050
2051
2052
2053
2055
2057
2059
2060
2062
2063
2065
2066
2067
2069
2070
2071
2072
2073
2077
2078
2079
2080
2083
2085
2087
2088
2209
2211
2213
2220
2225
2226
2227
2228
2229
2230
2231
2232
2233
2234
2235
2236
2237
2238
2239
2240
2241
2242
2243
2244
2245
2246
2247
2248
2249
2250
2251
2252
2253
2254
2255
2256
2257
2258
2259
2260
2261
2262
2263
2264
2265
2266
2267
2268
2269
2270
2271
2272
2273
2274
2275
2276
2277
2278
2279
2280
2281
2282
2283
2284
2285
2286
2287
2288
2289
2290
2291
2292
2293
2294
2295
2296
2297
2298
2299
2300
2301
2302
2303
2304
2305
2306
2307
2308
2309
2310
2311
2312
2313
2314
2315
2319
2320
2321
2322
2323
2324
2325
2326
2327
2328
2329
2330
2331
2332
2333
2334
2335
2336
2337
2338
2339
2340
2341
2342
2343
2344
2345
2346
2347
2348
2350
2351
2359
2361
2363
2365
2367
2370
2375
2377
2378
2379
2380
2389
2390
2391
2392
2393
2394
2395
2396
2397
2398
2399
2400
2407
2409
2411
2413
2415
2417
2419
2421
2423
2425
2429
2430
2431
2434
2442
2444
2446
2448
2449
2452
2453
2454
2456
2457
2458
2459
2460
2461
2462
2463
2464
2465
2466
2467
2468
2469
2470
2471
2472
2473
2474
2478
2479
2480
2484
2485
2486
2490
2491
2492
2497
2500
2511
2512
2513
2517
2518
2519
2520
2521
2522
2537
2538
2539
2540
2541
2542
2543
2544
2545
2546
2550
2551
2552
2553
2554
2556
2560
2564
2568
2572
2576
2580
2584
2588
2592
2596
2600
2601
2610
2611
2616
2617
2618
2619
2628
2629
2630
2631
2632
2633
2634
2644
2645
2646
2647
2648
2649
2650
2651
2652
2653
2654
2655
2656
2657
2662
2663
2669
2685
2686
2687
2688
2689
2690
2691
2692
2693
2694
2695
2696
2697
2698
2703
2704
2705
2706
2707
2708
2711
2712
2713
2714
2715
2716
2717
2718
2719
2720
2721
2722
2745
2746
2747
2748
2749
2750
2751
2752
2753
2754
2755
2756
2784
2785
2786
2787
2788
2789
2790
2791
2792
2793
2794
2795
2796
2797
2798
2799
2800
2801
2802
2803
2806
2807
2808
2809
2810
2811
2812
2813
2816
2820
2821
2836
2837
2838
2839
2840
2841
2852
2853
2854
2855
2856
2857
2858
2859
2865
2866
2867
2868
2869
2870
2871
2872
2873
2874
2877
2880
2883
2886
2889
2892
2895
2898
2901
2904
2906
2908
2909
2910
2915
2918
2919
2928
2929
2930
2931
2932
2933
2934
2947
2948
2949
2950
2951
2954
2955
2956
2957
2958
2959
2960
2961
2962
2963
2975
2976
2977
2978
2979
2980
2991
2992
2993
2994
2995
2996
2997
2998
2999
3000
3002
3003
3004
3005
3009
3017
3018
3019
3025
3026
3027
3028
3061
3081
3249
3251
3256
3257
3258
3259
3260
3261
3262
3263
3264
3265
3266
3267
3268
3272
3273
3274
3275
3284
3285
3286
3287
3288
3289
3290
3291
3292
3293
3294
3351
3353
3447
3449
3450
4028
4515
4516
4596
4799
6190
6191
6192
6193
6194
6195
6196
6197
6198
6199
6200
6201
6202
6203
6204
6205
6206
6207
6208
6209
6210
6211
6212
6213
6214
6215
6216
6217
6218
6219
6220
6221
6222
6223
6224
6225
6226
6227
6228
6229
6230
6231
6232
6233
6234
6235
6236
6237
6238
6239
6240
6241
6242
6243
6244
6245
6246
6247
6248
6249
6250
6251
6252
6253
6254
6255
6256
6257
6258
6259
6260
6261
6262
6263
6264
6265
6268
6269
6275
6277
6279
6280
6281
6282
6283
6288
6290
6292
6304
6305
6306
6307
6328
6329
6330
6331
6345
6347
6349
6351
6353
6354
6355
6356
6357
6358
6361
6363
6365
6367
6369
6371
6383
6384
6385
6386
6406
6407
6408
6409
6410
6411
6418
6419
6420
6424
6425
6426
6430
6431
6432
6433
6434
6435
6436
6437
6438
6439
6440
6441
6442
6443
6444
6451
6452
6453
6456
6457
6458
6462
6463
6464
6481
6482
6483
6484
6485
6486
6515
6516
6517
6518
6519
6520
6546
6550
6554
6558
6562
6566
6570
6574
6578
6582
6587
6588
6589
6590
6603
6604
6605
6606
6615
6616
6617
6618
6619
6620
6621
6622
6623
6624
6625
6626
6627
6628
6629
6630
6631
6632
6633
6634
6635
6636
6637
6638
6639
6640
6641
6642
6643
6644
6667
6668
6669
6670
6671
6672
6673
6674
6691
6692
6693
6694
6695
6696
6701
6702
6703
6704
6705
6706
6759
6760
6761
6762
6763
6764
6765
6766
6767
6768
6769
6770
6795
6796
6797
6798
6799
6800
6801
6802
6803
6804
6805
6806
6809
6810
6811
6812
6813
6814
6815
6816
6817
6818
6819
6820
6821
6822
6823
6824
6825
6826
6827
6828
6829
6830
6831
6832
6833
6834
6835
6836
6837
6838
6839
6840
6841
6842
6843
6844
6864
6865
6866
6867
6868
6869
6870
6871
6984
6987
6990
6993
6996
6999
7002
7005
7008
7011
7017
7020
7039
7042
7055
7058
7059
7060
7061
7062
7063
7064
7065
7066
7078
7079
7080
7081
7090
7091
7092
7097
7098
7099
7142
7143
7144
7146
7147
7148
7213
7214
7215
7216
7217
7218
7220
7221
7222
7223
7224
7225
7226
7227
7228
7229
7230
7231
7232
7233
7234
7235
7236
7237
7248
7249
7250
7251
7300
7302
7382
7384
7387
7388
7428
7430
7434
7436
7438
7439
7457
7458
7459
7460
7461
7462
7500
7502
7506
7507
7538
7542
7546
7550
7553
7554
7557
7558
7561
7589
7590
7591
7592
7596
7597
7598
7599
7600
7601
7602
7607
7610
7617
7651
7652
7653
7654
7655
7656
7657
7658
7694
7695
7696
7723
7726
7728
7729
7730
7732
7741
7742
7745
7746
7747
7751
7753
7773
7774
7775
7776
7794
7804
7805
7806
7807
7808
7809
7810
7811
7812
7813
7814
7816
7817
7818
7819
7821
7822
7823
7824
7825
7827
7828
7829
7830
7831
7832
7834
7835
7836
7837
7838
7839
7840
7841
7842
7843
7844
7845
7846
7847
7848
7849
7850
7851
7852
7853
7854
7855
7856
7857
7858
7861
7864
7866
7867
7868
7869
7870
7871
7872
7876
7877
7886
7887
7888
7894
7895
7896
7897
7898
7899
7900
7901
7902
7905
7911
7913
7917
7918
7919
7920
7921
7922
7928
7929
7933
7937
7938
7939
7940
7941
7942
7943
7944
7945
7946
7947
7948
7949
7950
7951
7953
7956
7957
7960
7961
7962
7963
7964
7965
7967
7969
7970
7972
7975
7977
7979
7980
7981
7982
7983
7984
7985
7994
7995
7997
7998
8001
8002
8003
8007
8010
8013
8016
8020
8024
8028
8032
8036
8040
8042
8043
8044
8045
8046
8047
8048
8049
8050
8051
8052
8053
8054
8055
8056
8057
8058
8059
8060
8061
8062
8063
8064
8065
8066
8067
8068
8069
8070
8071
8072
8073
8074
8075
8076
8077
8078
8079
8080
8081
8090
8091
8092
8093
8094
8095
8096
8097
8098
8099
8100
8101
8102
8103
8104
8105
8106
8107
8108
8109
8110
8111
8112
8113
8114
8115
8116
8117
8118
8119
8120
8121
8122
8123
8129
8131
8132
8133
8134
8135
8136
8137
8138
8139
8141
8142
8143
8146
8158
8159
8160
8161
8162
8163
8176
8177
8178
8179
8180
8181
8182
8184
8187
8190
8193
8196
8199
8202
8204
8206
8207
8209
8210
8211
8212
8213
8214
8215
8216
8217
8218
8219
8220
8221
8222
8223
8224
8225
8226
8227
8228
8229
8230
8231
8232
8233
8234
8235
8237
8238
8239
8240
8241
8242
8243
8244
8245
8246
8247
8248
8249
8250
8251
8252
8256
8257
8258
8259
8269
8270
8271
8278
8279
8280
8282
8283
8284
8291
8295
8296
8299
8303
8305
8306
8316
8317
8318
9207
9208
9209
9211
9213
9214
9215
9216
9217
9218
9219
9220
9221
9227
9229
9230
9231
9232
9235
9237
9238
9239
9240
9241
9242
9243
9244
9245
9246
9247
9249
9253
9256
9257
9258
9260
9265
9266
9267
9268
9269
9270
9271
9272
9273
9274
9275
9276
9277
9278
9279
9281
9282
9286
9287
9288
9289
9290
9291
9292
9293
9294
9295
9296
9297
9298
9299
9300
9301
9302
9303
9304
9305
9306
9307
9308
9309
9310
9311
9331
9332
9333
9336
9337
9338
9339
9340
9341
9342
9343
9344
9345
9346
9347
9348
9349
9350
9353
9354
9355
9356
9357
9358
9359
9361
9362
9363
9364
9365
9368
9369
9370
9372
9373
9374
9375
9376
9377
9378
9379
9380
9381
9382
9383
9384
9385
9386
9387
9389
9396
9400
9401
9420
9423
9424
9425
9426
9427
9428
9429
9443
9446
9447
9448
9466
9468
9476
9478
9483
9484
9491
9492
9525
9550
9552
9555
9556
9567
9569
9570
9571
9580
9581
9582
9583
9584
9585
9586
9587
9588
9589
9590
9591
9592
9593
9594
9595
9598
9600
9601
9602
9603
9604
9605
9606
9607
9608
9609
9610
9611
9612
9613
9614
9615
9616
9620
9624
9628
9632
9636
9640
9644
9649
9650
9651
9652
9653
9654
9655
9656
9657
9658
9659
9660
9661
9662
9663
9664
9665
9666
9667
9668
9669
9670
9671
9672
9673
9674
9675
9676
9677
9682
9683
9684
9685
9686
9687
9688
9689
9690
9691
9692
9693
9696
9697
9698
9699
9700
9701
9702
9703
9704
9705
9706
9707
9708
9709
9717
9718
9719
9720
9721
9722
9728
9729
9735
9737
9742
9743
9744
9746
9763
9764
9765
9766
9771
9772
9773
9774
9792
9793
9794
9795
9796
9797
9798
9799
9800
9801
9802
9803
9804
9805
9806
9807
9808
9809
9810
9811
9812
9813
9814
9815
9816
9817
9818
9819
9820
9821
9822
9823
9824
9825
9826
9827
9828
9829
9830
9831
9832
9833
9834
9835
9836
9837
9838
9839
9840
9841
9842
9843
9844
9845
9846
9847
9848
9849
9850
9851
9852
9853
9854
9855
9856
9857
9858
9859
9860
9861
9904
9906
9908
9909
9910
9911
9912
9913
9914
9915
9916
9917
9918
9919
9920
9921
9923
9924
9925
9926
9927
9928
9929
9930
9931
9932
9934
9936
9938
9940
9942
9944
9946
9948
9949
9950
9951
9952
9953
9954
9955
9956
9957
9958
9959
9960
9961
9962
9963
9966
9967
9968
9969
9974
9975
9976
9977
9978
9979
9980
9981
9982
9983
9986
9987
9988
9989
9990
9991
9992
9993
9995
9996
9997
9998
9999
10000
10001
10002
10003
10004
10005
10006
10007
10008
10009
10010
10011
10012
10013
10014
10015
10016
10017
10018
10019
10020
10021
10025
10026
10027
10028
10029
10030
10031
10032
10033
10034
10035
10036
10037
10038
10039
10040
10041
10042
10043
10044
10045
10048
10049
10054
10055
10057
10058
10059
10060
10069
10070
10071
10072
10073
10074
10075
10076
10077
10078
10079
10080
10081
10084
10085
10086
10087
10088
10089
10090
10091
10092
10093
10094
10095
10096
10097
10106
10107
10108
10109
10110
10111
10112
10113
10114
10115
10116
10117
10118
10119
10120
10121
10122
10123
10124
10125
10126
10189
10751
10752
10753
10754
10757
10758
10759
10761
10762
10763
10764
10765
10769
10770
10773
10776
10777
10782
10783
10784
10785
10786
10787
10792
10793
10794
10795
10796
10797
10799
10802
10803
10804
10805
10806
10807
10818
10819
10820
10821
10822
10823
10824
10825
10826
10827
10828
10829
10868
10869
10870
10871
10872
10873
10876
10878
10879
10881
10882
10885
10886
10887
10889
10890
10891
10892
10893
10894
10895
10896
10897
10898
10899
10900
10901
10902
10903
10904
10905
10906
10908
10909
10910
10911
10912
10913
10914
10915
10916
10919
10920
10921
10922
10923
10981
10982
10983
10984
10991
10992
10995
10996
10997
10998
10999
11002
11003
11004
11005
11008
11009
11010
11011
11014
11015
11016
11017
11018
11019
11022
11023
11024
11025
11026
11027
11028
11029
11030
11059
11060
11061
11062
11063
11064
11065
11066
11067
11068
11069
11070
11071
11072
11073
11074
11075
11076
11077
11078
11079
11080
11081
11082
11188
11189
11190
11191
11195
11196
11198
11199
11200
11201
11212
11213
11216
11221
11222
11223
11292
11293
11294
11295
11296
11297
11298
11299
11300
11301
11302
11303
11304
11305
11309
11316
11317
11318
11319
11320
11321
11322
11323
11324
11325
11326
11327
11328
11329
11330
11331
11332
11333
11334
11335
11336
11337
11338
11339
11340
11341
11342
11343
11344
11345
11346
11347
11348
11349
11350
11351
11352
11353
11354
11355
11356
11357
11358
11359
11360
11361
11362
11363
11364
11365
11366
11367
11368
11369
11370
11371
11372
11373
11374
11375
11376
11377
11378
11379
11380
11381
11382
11383
11384
11385
11386
11387
11388
11389
11390
11391
11392
11393
11394
11395
11396
11397
11398
11399
11400
11401
11402
11403
11404
11405
11406
11407
11408
11409
11410
11411
11412
11413
11414
11415
11416
11417
11418
11419
11420
11421
11422
11423
11424
11425
11426
11427
11428
11429
11430
11431
11432
11433
11434
11435
11436
11437
11438
11439
11440
11441
11442
11443
11444
11445
11446
11447
11448
11453
11454
11455
11456
11457
11458
11459
11460
11461
11469
11471
11474
11476
11478
11479
11480
11481
11482
11502
11503
11504
11505
11506
11507
11508
11509
11510
11511
11512
11519
11521
11523
11525
11527
11529
11532
11534
11536
11538
11539
11540
11541
11551
11552
11553
11554
11555
11556
11557
11558
11559
11560
11561
11562
11563
11564
11565
11566
11567
11568
11569
11570
11571
11572
11573
11574
11575
11576
11577
11578
11579
11583
11584
11585
11589
11590
11594
11595
11596
11600
11601
11602
11603
11604
11605
11606
11607
11608
11609
11610
11611
11627
11628
11629
11630
11631
11632
11633
11634
11635
11636
11637
11638
11639
11640
11641
11642
11643
11644
11645
11646
11647
11648
11649
11650
11651
11652
11656
11657
11658
11659
11660
11661
11663
11664
11668
11672
11676
11680
11684
11688
11704
11705
11708
11709
11710
11711
11712
11713
11722
11723
11724
11727
11728
11729
11730
11731
11732
11733
11734
11735
11760
11761
11762
11763
11764
11765
11774
11775
11776
11777
11778
11780
11781
11782
11783
11784
11785
11786
11787
11788
11789
11790
11791
11792
11793
11794
11796
11797
11798
11799
11800
11801
11802
11803
11804
11805
11806
11811
11812
11813
11814
11815
11816
11817
11818
11819
11820
11821
11822
11823
11824
11825
11826
11827
11828
11847
11848
11849
11850
11851
11852
11853
11854
11855
11856
11857
11858
11859
11860
11875
11877
11879
11881
11889
11891
11893
11905
11906
11907
11908
11909
11910
11911
11912
11913
11914
11915
11916
11917
11918
11919
11920
11921
11922
11923
11926
11927
11928
11929
11930
11931
11940
11941
11942
11943
11944
11945
11946
11947
11952
11953
11954
11955
11956
11957
11960
11961
11963
11964
11965
11966
11967
11968
11969
11970
11971
11972
11973
11974
11975
11976
11977
11978
11979
11980
11981
11982
11983
11984
11985
11986
11987
11988
11989
11990
11991
11992
11993
11994
11995
11996
11997
11999
12000
12002
12004
12005
12008
12009
12010
12011
12012
12013
12014
12015
12016
12017
12018
12020
12022
12023
12024
12025
12026
12027
12028
12031
12032
12035
12036
12037
12038
12039
12040
12041
12042
12043
12044
12045
12046
12047
12048
12049
12074
12075
12078
12079
12080
12081
12082
12097
12098
12099
12133
12136
12139
12142
12145
12148
12151
12162
12163
12164
12165
12167
12168
12169
12180
12181
12182
12184
12185
12186
12187
12188
12189
12202
12203
12214
12215
12216
12217
12218
12219
12220
12221
12222
12223
12226
12227
12228
12229
12230
12231
12232
12233
12234
12235
12236
12237
12238
12239
12240
12241
12242
12243
12244
12245
12246
12247
12248
12249
12250
12253
12254
12255
12256
12257
12258
12259
12260
12261
12262
12263
12264
12265
12284
12285
12286
12287
12288
12305
12306
12307
12308
12309
12310
12311
12312
12313
12314
12322
12323
12324
12325
12326
12327
12328
12329
12333
12334
12335
12336
12337
12343
12344
12345
12346
12347
12348
12349
12350
12351
12352
12353
12355
12356
12357
12362
12363
12364
12365
12368
12369
12370
)


1021
(
2014
2028
7804
7806
7808
7814
7827
7856
8291
8295
8296
8299
8303
8305
8306
8316
8317
8318
8321
9207
9208
9209
9210
9211
9213
9214
9215
9216
9217
9218
9219
9220
9221
9222
9224
9226
9227
9228
9229
9230
9231
9232
9233
9234
9235
9236
9237
9238
9239
9240
9241
9242
9243
9244
9245
9246
9248
9249
9250
9251
9252
9253
9254
9255
9256
9257
9258
9259
9260
9261
9262
9263
9264
9265
9266
9267
9268
9269
9270
9271
9272
9273
9274
9275
9276
9277
9278
9279
9280
9281
9282
9283
9284
9285
9286
9287
9288
9289
9290
9291
9292
9293
9294
9295
9296
9297
9298
9299
9300
9301
9302
9303
9304
9305
9306
9307
9308
9309
9310
9311
9316
9331
9332
9333
9334
9335
9336
9337
9338
9339
9340
9341
9342
9343
9344
9345
9346
9347
9348
9349
9350
9353
9354
9355
9356
9357
9358
9359
9360
9361
9362
9363
9364
9365
9366
9367
9368
9369
9370
9372
9373
9374
9375
9376
9377
9378
9379
9380
9381
9382
9383
9384
9385
9386
9387
9389
9396
9400
9401
9411
9412
9419
9420
9421
9422
9423
9424
9425
9426
9427
9428
9429
9432
9434
9435
9438
9440
9441
9443
9446
9447
9448
9453
9454
9455
9456
9461
9462
9463
9464
9465
9466
9467
9468
9469
9471
9472
9473
9474
9475
9476
9477
9478
9479
9480
9481
9482
9483
9484
9485
9486
9487
9488
9489
9490
9491
9492
9525
9526
9527
9529
9530
9532
9533
9534
9537
9541
9542
9544
9545
9546
9547
9549
9550
9552
9553
9555
9556
9567
9569
9570
9571
9572
9573
9574
9575
9576
9577
9578
9579
9580
9581
9582
9583
9584
9585
9586
9587
9588
9589
9590
9591
9592
9593
9594
9595
9598
9600
9601
9602
9603
9604
9605
9606
9607
9608
9609
9610
9611
9612
9613
9614
9615
9616
9620
9624
9628
9632
9636
9640
9644
9649
9650
9651
9652
9653
9654
9655
9656
9657
9658
9659
9660
9661
9662
9663
9664
9665
9666
9667
9668
9669
9670
9671
9672
9673
9674
9675
9676
9677
9682
9683
9684
9685
9686
9687
9688
9689
9690
9691
9692
9693
9696
9697
9698
9699
9700
9701
9702
9703
9704
9705
9706
9707
9708
9709
9717
9718
9719
9720
9721
9722
9728
9729
9732
9733
9734
9735
9736
9737
9738
9739
9740
9741
9742
9743
9744
9745
9746
9763
9764
9765
9766
9771
9772
9773
9774
9792
9793
9794
9795
9796
9797
9798
9799
9800
9801
9802
9803
9804
9805
9806
9807
9808
9809
9810
9811
9812
9813
9814
9815
9816
9817
9818
9819
9820
9821
9822
9823
9824
9825
9826
9827
9828
9829
9830
9831
9832
9833
9834
9835
9836
9837
9838
9839
9840
9841
9842
9843
9844
9845
9846
9847
9848
9849
9850
9851
9852
9853
9854
9855
9856
9857
9858
9859
9860
9861
9866
9867
9868
9869
9870
9871
9872
9873
9874
9875
9876
9877
9878
9888
9890
9892
9893
9898
9900
9901
9903
9904
9906
9908
9909
9910
9911
9912
9913
9914
9915
9916
9917
9918
9919
9920
9921
9923
9924
9925
9926
9927
9928
9929
9930
9931
9932
9934
9936
9938
9940
9942
9944
9946
9948
9949
9950
9951
9952
9953
9954
9955
9956
9957
9958
9959
9960
9961
9962
9963
9964
9965
9966
9967
9968
9969
9970
9971
9972
9973
9974
9975
9976
9977
9978
9979
9980
9981
9982
9983
9986
9987
9988
9989
9990
9991
9992
9993
9995
9996
9997
9998
9999
10000
10001
10002
10003
10004
10005
10006
10007
10008
10009
10010
10011
10012
10013
10014
10015
10016
10017
10018
10019
10020
10021
10025
10026
10027
10028
10029
10030
10031
10032
10033
10034
10035
10036
10037
10038
10039
10040
10041
10042
10043
10044
10045
10048
10049
10052
10053
10054
10055
10056
10057
10058
10059
10060
10069
10070
10071
10072
10073
10074
10075
10076
10077
10078
10079
10080
10081
10084
10085
10086
10087
10088
10089
10090
10091
10092
10093
10094
10095
10096
10097
10106
10107
10108
10109
10110
10111
10112
10113
10114
10115
10116
10117
10118
10119
10120
10121
10122
10123
10124
10125
10126
10147
10194
10195
10207
10209
10210
10215
10217
10261
10312
10322
10751
10752
10763
10764
10802
11316
11317
11318
11319
11320
11321
11322
11323
11324
11326
11327
11328
11329
11330
11331
11332
11333
11334
11335
11336
11338
11339
11340
11341
11342
11343
11344
11345
11346
11347
11348
11350
11360
11364
11366
11367
11368
11369
11374
11375
11376
11377
11392
11393
11394
11395
11396
11397
11398
11399
11400
11401
11402
11403
11404
11405
11406
11407
11410
11411
11412
11413
11414
11415
11416
11417
11418
11421
11422
11423
11424
11425
11426
11427
11438
11439
11440
11441
11442
11443
11444
11445
11446
11447
11448
11453
11458
11460
11478
11540
11541
11551
11552
11553
11554
11555
11567
11569
11570
11572
11573
11575
11576
11600
11602
11603
11604
11605
11627
11628
11629
11630
11631
11633
11634
11636
11637
11638
11639
11641
11642
11643
11644
11646
11659
11663
11704
11705
11708
11709
11710
11711
11722
11727
11728
11729
11730
11731
11774
11775
11776
11777
11778
11792
11793
11794
11796
11803
11804
11805
11806
11811
11818
11819
11820
11821
11822
11847
11848
11875
11877
11879
11881
11889
11891
11893
11917
11952
11953
11954
11955
11956
11957
11960
11961
11963
11964
11965
11966
11967
11968
11969
11970
11971
11972
11973
11974
11975
11976
11977
11978
11979
11980
11981
11982
11983
11984
11985
11986
11987
11988
11989
11990
11991
11992
11993
11994
11995
11996
11997
11999
12000
12002
12004
12005
12008
12009
12010
12011
12012
12013
12014
12015
12016
12017
12018
12020
12022
12023
12024
12025
12026
12027
12028
12031
12032
12035
12036
12037
12038
12039
12040
12041
12042
12043
12044
12045
12046
12047
12048
12049
12074
12075
12078
12079
12080
12081
12082
12097
12099
12162
12163
12164
12165
12167
12168
12180
12181
12184
12185
12186
12187
12202
12203
12214
12215
12216
12217
12218
12219
12220
12221
12222
12223
12232
12233
12234
12235
12236
12237
12238
12243
12244
12245
12246
12247
12248
12249
12250
12253
12254
12258
12259
12260
12261
12262
12263
12264
12265
12284
12285
12305
12306
12307
12308
12322
12323
12324
12325
12326
12327
12328
12329
12333
12334
12335
12336
12337
12349
12350
12368
12369
12370
)


1049
(
7804
7808
7856
8291
8295
8296
8299
8303
8305
8306
8316
8317
8318
8319
8321
9207
9208
9209
9210
9211
9212
9213
9214
9215
9216
9217
9218
9219
9220
9221
9222
9224
9226
9227
9228
9229
9230
9231
9232
9233
9234
9235
9236
9237
9238
9239
9240
9241
9242
9243
9244
9245
9246
9248
9249
9250
9251
9252
9253
9254
9255
9256
9257
9258
9259
9260
9261
9262
9263
9264
9265
9266
9267
9268
9269
9270
9271
9272
9273
9274
9275
9276
9277
9278
9279
9280
9281
9282
9283
9284
9285
9286
9287
9288
9289
9290
9291
9292
9293
9294
9295
9296
9297
9298
9299
9300
9301
9302
9303
9304
9305
9306
9307
9308
9309
9310
9311
9316
9331
9332
9333
9334
9335
9336
9337
9338
9339
9340
9341
9342
9343
9344
9345
9346
9347
9348
9349
9350
9353
9354
9355
9356
9357
9358
9359
9360
9361
9362
9363
9364
9365
9366
9367
9368
9369
9370
9372
9373
9374
9375
9376
9377
9378
9379
9380
9381
9382
9383
9384
9385
9386
9387
9389
9396
9400
9401
9411
9412
9419
9420
9421
9422
9423
9424
9425
9426
9427
9428
9429
9432
9434
9435
9438
9440
9441
9443
9446
9447
9448
9451
9452
9453
9454
9455
9456
9461
9462
9463
9464
9465
9466
9467
9468
9469
9471
9472
9473
9474
9475
9476
9477
9478
9479
9480
9481
9482
9483
9484
9485
9486
9487
9488
9489
9490
9491
9492
9525
9526
9527
9529
9530
9532
9533
9534
9535
9537
9539
9541
9542
9544
9545
9546
9547
9549
9550
9552
9553
9555
9556
9557
9558
9567
9569
9570
9571
9572
9573
9574
9575
9576
9577
9578
9579
9580
9581
9582
9583
9584
9585
9586
9587
9588
9589
9590
9591
9592
9593
9594
9595
9598
9600
9601
9602
9603
9604
9605
9606
9607
9608
9609
9610
9611
9612
9613
9614
9615
9616
9620
9624
9628
9632
9636
9640
9644
9649
9650
9651
9652
9653
9654
9655
9656
9657
9658
9659
9660
9661
9662
9663
9664
9665
9666
9667
9668
9669
9670
9671
9672
9673
9674
9675
9676
9677
9682
9683
9684
9685
9686
9687
9688
9689
9690
9691
9692
9693
9696
9697
9698
9699
9700
9701
9702
9703
9704
9705
9706
9707
9708
9709
9717
9718
9719
9720
9721
9722
9728
9729
9730
9731
9732
9733
9734
9735
9736
9737
9738
9739
9740
9741
9742
9743
9744
9745
9746
9763
9764
9765
9766
9771
9772
9773
9774
9792
9793
9794
9795
9796
9797
9798
9799
9800
9801
9802
9803
9804
9805
9806
9807
9808
9809
9810
9811
9812
9813
9814
9815
9816
9817
9818
9819
9820
9821
9822
9823
9824
9825
9826
9827
9828
9829
9830
9831
9832
9833
9834
9835
9836
9837
9838
9839
9840
9841
9842
9843
9844
9845
9846
9847
9848
9849
9850
9851
9852
9853
9854
9855
9856
9857
9858
9859
9860
9861
9866
9867
9868
9869
9870
9871
9872
9873
9874
9875
9876
9877
9878
9888
9890
9892
9893
9894
9895
9896
9897
9898
9900
9901
9903
9904
9906
9908
9909
9910
9911
9912
9913
9914
9915
9916
9917
9918
9919
9920
9921
9923
9924
9925
9926
9927
9928
9929
9930
9931
9932
9934
9936
9938
9940
9942
9944
9946
9948
9949
9950
9951
9952
9953
9954
9955
9956
9957
9958
9959
9960
9961
9962
9963
9964
9965
9966
9967
9968
9969
9970
9971
9972
9973
9974
9975
9976
9977
9978
9979
9980
9981
9982
9983
9986
9987
9988
9989
9990
9991
9992
9993
9995
9996
9997
9998
9999
10000
10001
10002
10003
10004
10005
10006
10007
10008
10009
10010
10011
10012
10013
10014
10015
10016
10017
10018
10019
10020
10021
10025
10026
10027
10028
10029
10030
10031
10032
10033
10034
10035
10036
10037
10038
10039
10040
10041
10042
10043
10044
10045
10048
10049
10050
10051
10052
10053
10054
10055
10056
10057
10058
10059
10060
10069
10070
10071
10072
10073
10074
10075
10076
10077
10078
10079
10080
10081
10084
10085
10086
10087
10088
10089
10090
10091
10092
10093
10094
10095
10096
10097
10106
10107
10108
10109
10110
10111
10112
10113
10114
10115
10116
10117
10118
10119
10120
10121
10122
10123
10124
10125
10126
10147
10194
10195
10206
10207
10208
10209
10210
10215
10217
10259
10260
10261
10310
10311
10312
10322
10337
10338
10339
10340
10389
10390
10396
10397
10398
10399
10426
10427
10751
10763
10764
10802
11316
11317
11318
11319
11320
11321
11322
11323
11324
11326
11327
11328
11329
11330
11331
11332
11333
11334
11335
11338
11339
11340
11341
11342
11343
11344
11345
11346
11347
11348
11349
11350
11360
11364
11366
11367
11368
11369
11374
11375
11376
11377
11392
11393
11394
11395
11396
11397
11398
11399
11400
11401
11402
11403
11404
11405
11406
11407
11410
11411
11412
11413
11414
11415
11416
11417
11418
11421
11422
11423
11424
11425
11426
11427
11438
11439
11440
11441
11442
11443
11444
11445
11446
11447
11448
11453
11458
11460
11478
11540
11541
11551
11552
11553
11554
11555
11567
11569
11570
11572
11573
11575
11576
11600
11602
11603
11604
11605
11627
11628
11629
11630
11631
11633
11634
11636
11637
11638
11639
11641
11642
11643
11644
11646
11659
11663
11704
11705
11708
11709
11710
11711
11722
11727
11728
11729
11730
11731
11774
11775
11776
11777
11778
11792
11793
11794
11796
11803
11804
11805
11806
11811
11818
11819
11820
11821
11822
11847
11848
11875
11877
11879
11881
11889
11891
11893
11917
11952
11953
11954
11955
11956
11957
11960
11961
11963
11964
11965
11966
11967
11968
11969
11970
11971
11972
11973
11974
11975
11976
11977
11978
11979
11980
11981
11982
11983
11984
11985
11986
11987
11988
11989
11990
11991
11992
11993
11994
11995
11996
11997
11999
12000
12002
12004
12005
12008
12009
12010
12011
12012
12013
12014
12015
12016
12017
12018
12020
12022
12023
12024
12025
12026
12027
12028
12031
12032
12035
12036
12037
12038
12039
12040
12041
12042
12043
12044
12045
12046
12047
12048
12049
12074
12075
12078
12079
12080
12081
12082
12097
12099
12162
12163
12164
12165
12167
12168
12180
12181
12184
12185
12186
12187
12202
12203
12214
12215
12216
12217
12218
12219
12220
12221
12222
12223
12232
12233
12234
12235
12236
12237
12238
12243
12244
12245
12246
12247
12248
12249
12250
12253
12254
12258
12259
12260
12261
12262
12263
12264
12265
12284
12285
12305
12306
12307
12308
12322
12323
12324
12325
12326
12327
12328
12329
12333
12334
12335
12336
12337
12349
12350
12368
12369
12370
)


3876
(
1
17
18
19
20
21
22
23
108
109
111
112
113
114
115
116
117
118
119
121
122
123
124
125
126
127
128
129
130
131
132
133
137
138
139
140
141
142
143
144
145
146
147
148
149
150
151
152
153
154
155
156
157
158
159
160
161
162
163
164
168
171
174
177
179
180
181
182
183
185
187
190
191
192
193
197
198
199
200
204
205
206
207
208
209
210
211
212
213
214
215
216
217
218
219
220
221
234
235
236
237
238
239
240
243
244
245
246
247
248
249
250
251
252
253
254
255
256
257
258
259
260
261
262
263
264
265
266
267
268
269
270
271
272
273
274
276
277
278
279
281
282
284
285
286
287
289
291
292
293
295
296
297
299
300
301
303
304
305
306
308
309
310
312
313
314
315
317
321
322
323
324
325
326
327
328
329
331
332
334
339
340
341
353
354
355
357
358
359
361
362
363
365
366
367
369
370
371
373
374
375
377
378
379
381
382
383
385
386
387
389
390
391
393
394
395
430
433
434
435
436
437
438
439
440
451
452
453
454
468
469
470
471
472
473
474
475
476
477
484
485
486
487
488
489
490
491
492
493
494
495
496
497
498
499
500
501
502
503
504
505
506
507
508
509
510
511
512
522
523
524
525
526
527
528
529
530
531
532
533
549
550
551
552
553
554
555
556
557
558
559
560
561
562
563
564
565
566
571
572
573
574
575
576
581
582
583
584
585
586
587
588
589
590
591
592
593
594
595
596
597
598
599
600
601
602
603
604
605
606
607
608
609
610
611
612
613
614
615
616
617
618
619
620
621
622
623
624
625
626
627
628
629
630
631
632
688
689
690
699
700
701
702
703
704
705
706
707
708
709
710
711
712
713
714
715
716
717
718
719
720
721
722
723
724
725
726
727
729
730
731
732
733
734
735
736
748
758
760
762
764
766
768
770
772
774
776
778
803
804
805
806
812
813
841
842
843
844
845
858
859
860
861
862
863
864
865
866
867
868
869
870
871
872
873
874
875
876
877
886
887
888
889
890
891
892
893
894
908
909
910
925
926
927
928
929
930
931
932
933
934
935
936
937
938
939
940
941
942
943
944
945
946
947
948
949
950
1028
2014
2028
2087
2088
2226
2227
2228
2229
2267
2268
2269
2270
2271
2352
2353
2354
2355
2356
2357
2358
2360
2362
2364
2366
2368
2372
2373
2374
2376
2381
2382
2383
2384
2385
2386
2387
2388
2401
2402
2403
2404
2405
2406
2408
2410
2412
2414
2416
2418
2420
2422
2424
2426
2436
2437
2438
2439
2440
2441
2443
2445
2447
2450
2451
2475
2476
2477
2481
2482
2483
2487
2488
2489
2493
2494
2495
2505
2506
2507
2508
2509
2510
2514
2515
2516
2523
2524
2525
2526
2527
2528
2529
2530
2531
2532
2533
2534
2535
2536
2547
2548
2549
2555
2557
2558
2559
2561
2562
2563
2565
2566
2567
2569
2570
2571
2573
2574
2575
2577
2578
2579
2581
2582
2583
2585
2586
2587
2589
2590
2591
2593
2594
2595
2597
2598
2599
2602
2603
2604
2605
2606
2607
2608
2609
2612
2613
2614
2615
2620
2621
2622
2623
2624
2625
2626
2627
2635
2636
2637
2638
2639
2640
2641
2642
2643
2673
2674
2675
2676
2677
2678
2679
2680
2681
2682
2683
2684
2697
2698
2699
2700
2701
2702
2723
2724
2725
2726
2727
2728
2729
2730
2731
2732
2733
2734
2735
2736
2737
2738
2739
2740
2741
2742
2743
2744
2757
2758
2759
2760
2761
2762
2763
2764
2765
2766
2767
2768
2769
2770
2771
2772
2773
2774
2775
2776
2777
2778
2779
2780
2781
2782
2783
2804
2805
2828
2829
2830
2831
2832
2833
2834
2835
2842
2843
2844
2845
2846
2847
2848
2849
2850
2851
2860
2861
2862
2863
2864
2875
2876
2878
2879
2881
2882
2884
2885
2887
2888
2890
2891
2893
2894
2896
2897
2899
2900
2902
2903
2905
2906
2907
2908
2909
2911
2912
2913
2914
2916
2917
2920
2921
2922
2923
2924
2925
2926
2927
2941
2942
2943
2944
2945
2946
2952
2953
2964
2965
2966
2967
2968
2969
2970
2971
2972
2973
2974
2981
2982
2983
2984
2985
2986
2987
2988
2989
2990
3001
3013
3014
3015
3016
3020
3021
3022
3023
3024
3029
3030
3081
3279
3280
3281
3282
3283
3284
3285
3286
3287
3288
3293
3294
3447
3448
3449
3450
3526
3527
3528
3529
3530
3531
3532
3533
3534
3535
3544
3545
3546
3547
3552
3553
3568
3569
3570
3571
3576
3577
3582
3583
3584
3585
3586
3587
3588
3589
3590
3591
3592
3593
3594
3595
3596