/*--------------------------------*- C++ -*----------------------------------*\
  =========                 |
  \\      /  F ield         | OpenFOAM: The Open Source CFD Toolbox
   \\    /   O peration     | Website:  https://openfoam.org
    \\  /    A nd           | Version:  8
     \\/     M anipulation  |
\*---------------------------------------------------------------------------*/
/*   Windows 32 and 64 bit porting by blueCAPE: http://www.bluecape.com.pt   *\
|  Based on Windows porting (2.0.x v4) by Symscape: http://www.symscape.com   |
\*---------------------------------------------------------------------------*/
FoamFile
{
    version     2.0;
    format      ascii;
    class       scalarListList;
    location    "constant/vegetation";
    object      sunViewCoeff;
}
// * * * * * * * * * * * * * * * * * * * * * * * * * * * * * * * * * * * * * //


5
(

1059
(
0
0
0
0
0
357.08452
717.08284
717.08284
717.08284
717.08284
459.88437
717.08284
717.08284
0
457.72136
717.08284
717.08284
717.08284
717.08284
0
717.08284
717.08284
717.08284
717.08284
0
0
717.08284
717.08284
178.27413
717.08284
717.08284
717.08284
717.08284
0
0
0
0
0
0
0
0
0
0
0
0
0
0
0
80.639504
0
0
0
80.639504
0
80.639504
80.639504
80.639504
80.639504
0
0
0
0
80.639504
80.639504
80.639504
80.639504
0
0
0
0
0
0
0
0
0
0
0
0
0
0
80.639504
80.639504
80.639504
80.639504
80.639504
80.639504
80.639504
80.639504
80.639504
80.639504
80.639504
80.639504
80.639504
80.639504
80.639504
80.639504
0
0
80.639504
80.639504
80.639504
80.639504
80.639504
80.639504
80.639504
80.639504
80.639504
0
0
80.639504
80.639504
80.639504
80.639504
80.639504
80.639504
80.639504
0
0
0
0
0
0
0
0
0
0
80.639504
80.639504
80.639504
80.639504
80.639504
80.639504
80.639504
80.639504
80.639504
80.639504
80.639504
717.08284
717.08284
717.08284
717.08284
80.639504
0
0
0
0
80.639504
0
80.639504
0
717.08284
717.08284
717.08284
717.08284
717.08284
717.08284
717.08284
0
717.08284
0
717.08284
717.08284
0
717.08284
0
717.08284
80.639504
0
0
0
0
717.08284
717.08284
717.08284
717.08284
717.08284
717.08284
717.08284
717.08284
717.08284
717.08284
717.08284
717.08284
717.08284
717.08284
717.08284
717.08284
717.08284
717.08284
717.08284
0
0
0
0
0
0
0
0
0
0
0
717.08284
717.08284
717.08284
717.08284
717.08284
717.08284
0
717.08284
0
717.08284
0
717.08284
0
717.08284
0
717.08284
0
717.08284
717.08284
0
717.08284
0
717.08284
0
717.08284
0
0
80.639504
80.639504
717.08284
717.08284
717.08284
717.08284
717.08284
717.08284
717.08284
717.08284
717.08284
80.639504
80.639504
80.639504
80.639504
80.639504
0
0
0
0
0
0
0
0
0
0
0
80.639504
0
80.639504
80.639504
0
80.639504
80.639504
0
80.639504
80.639504
0
0
0
717.08284
717.08284
717.08284
0
0
0
717.08284
717.08284
717.08284
0
0
717.08284
717.08284
717.08284
0
0
0
717.08284
717.08284
717.08284
80.639504
0
80.639504
80.639504
80.639504
80.639504
0
0
0
0
0
0
717.08284
717.08284
717.08284
717.08284
717.08284
717.08284
717.08284
717.08284
717.08284
717.08284
717.08284
717.08284
717.08284
717.08284
717.08284
80.639504
80.639504
80.639504
80.639504
80.639504
0
80.639504
80.639504
0
80.639504
80.639504
80.639504
80.639504
0
80.639504
80.639504
80.639504
80.639504
0
80.639504
0
0
0
0
0
0
717.08284
717.08284
717.08284
0
0
0
80.639504
0
0
717.08284
80.639504
0
717.08284
717.08284
717.08284
0
717.08284
717.08284
717.08284
0
717.08284
717.08284
717.08284
0
717.08284
717.08284
717.08284
0
717.08284
717.08284
717.08284
0
717.08284
717.08284
717.08284
0
717.08284
717.08284
717.08284
717.08284
717.08284
717.08284
717.08284
717.08284
717.08284
717.08284
717.08284
717.08284
717.08284
717.08284
717.08284
80.639504
80.639504
717.08284
717.08284
80.639504
80.639504
80.639504
80.639504
0
0
717.08284
717.08284
717.08284
717.08284
717.08284
717.08284
717.08284
717.08284
80.639504
0
0
717.08284
717.08284
80.639504
80.639504
80.639504
80.639504
80.639504
0
0
0
0
717.08284
717.08284
717.08284
717.08284
717.08284
717.08284
717.08284
717.08284
717.08284
717.08284
717.08284
717.08284
717.08284
717.08284
717.08284
717.08284
717.08284
717.08284
717.08284
717.08284
717.08284
717.08284
717.08284
717.08284
0
0
0
0
0
0
717.08284
717.08284
717.08284
717.08284
717.08284
717.08284
717.08284
717.08284
80.639504
80.639504
80.639504
80.639504
80.639504
222.06862
0
0
0
0
0
0
0
0
0
0
0
0
80.639504
80.639504
80.639504
717.08284
80.639504
0
0
0
0
0
0
80.639504
80.639504
80.639504
80.639504
717.08284
717.08284
717.08284
717.08284
80.639504
0
0
0
0
0
0
80.639504
80.639504
80.639504
80.639504
80.639504
0
0
0
0
0
0
717.08284
717.08284
717.08284
717.08284
717.08284
717.08284
717.08284
717.08284
717.08284
717.08284
717.08284
717.08284
717.08284
717.08284
717.08284
717.08284
717.08284
717.08284
80.639504
80.639504
0
0
0
0
0
0
0
0
0
0
0
0
717.08284
717.08284
717.08284
717.08284
717.08284
717.08284
717.08284
717.08284
717.08284
717.08284
717.08284
717.08284
717.08284
717.08284
80.639504
717.08284
80.639504
717.08284
80.639504
717.08284
80.639504
717.08284
717.08284
717.08284
717.08284
717.08284
717.08284
717.08284
80.639504
717.08284
80.639504
717.08284
80.639504
717.08284
717.08284
717.08284
717.08284
717.08284
717.08284
717.08284
717.08284
717.08284
717.08284
717.08284
0
0
0
0
0
0
0
0
0
0
0
0
80.639504
0
0
0
0
0
0
717.08284
717.08284
0
0
0
0
0
0
717.08284
717.08284
717.08284
717.08284
717.08284
717.08284
717.08284
717.08284
0
0
0
0
0
0
0
0
717.08284
717.08284
717.08284
717.08284
80.639504
80.639504
80.639504
80.639504
80.639504
80.639504
222.06862
222.06862
80.639504
80.639504
222.06862
80.639504
80.639504
80.639504
80.639504
80.639504
80.639504
80.639504
80.639504
80.639504
80.639504
80.639504
80.639504
80.639504
80.639504
80.639504
80.639504
80.639504
80.639504
80.639504
80.639504
80.639504
80.639504
80.639504
80.639504
80.639504
80.639504
80.639504
80.639504
80.639504
80.639504
80.639504
80.639504
80.639504
80.639504
80.639504
222.06862
80.639504
80.639504
222.06862
80.639504
222.06862
80.639504
80.639504
222.06862
222.06862
80.639504
80.639504
80.639504
80.639504
80.639504
80.639504
80.639504
80.639504
80.639504
80.639504
80.639504
222.06862
80.639504
222.06862
80.639504
80.639504
80.639504
80.639504
80.639504
80.639504
80.639504
222.06862
222.06862
80.639504
80.639504
222.06862
222.06862
80.639504
80.639504
80.639504
80.639504
80.639504
80.639504
80.639504
80.639504
80.639504
80.639504
80.639504
80.639504
80.639504
80.639504
80.639504
222.06862
222.06862
222.06862
222.06862
222.06862
222.06862
222.06862
222.06862
222.06862
222.06862
222.06862
222.06862
222.06862
222.06862
222.06862
222.06862
222.06862
222.06862
222.06862
222.06862
222.06862
222.06862
222.06862
222.06862
80.639504
80.639504
222.06862
222.06862
80.639504
80.639504
80.639504
80.639504
80.639504
222.06862
222.06862
222.06862
222.06862
222.06862
222.06862
222.06862
222.06862
222.06862
222.06862
222.06862
222.06862
222.06862
222.06862
80.639504
0
80.639504
222.06862
222.06862
222.06862
222.06862
222.06862
222.06862
222.06862
222.06862
222.06862
222.06862
222.06862
222.06862
222.06862
222.06862
222.06862
222.06862
222.06862
222.06862
222.06862
222.06862
222.06862
222.06862
222.06862
222.06862
222.06862
222.06862
222.06862
222.06862
222.06862
222.06862
222.06862
222.06862
222.06862
0
717.08284
717.08284
0
717.08284
717.08284
0
717.08284
717.08284
0
717.08284
717.08284
0
717.08284
717.08284
0
717.08284
717.08284
0
717.08284
717.08284
717.08284
717.08284
717.08284
717.08284
717.08284
717.08284
717.08284
717.08284
80.639504
80.639504
80.639504
80.639504
717.08284
80.639504
80.639504
0
717.08284
222.06862
222.06862
717.08284
717.08284
222.06862
222.06862
717.08284
222.06862
222.06862
80.639504
80.639504
0
717.08284
80.639504
80.639504
80.639504
80.639504
0
0
717.08284
717.08284
717.08284
717.08284
717.08284
717.08284
717.08284
717.08284
717.08284
717.08284
717.08284
717.08284
80.639504
80.639504
717.08284
222.06862
222.06862
717.08284
717.08284
222.06862
222.06862
717.08284
222.06862
222.06862
80.639504
80.639504
80.639504
80.639504
80.639504
80.639504
80.639504
80.639504
80.639504
80.639504
222.06862
222.06862
0
0
0
0
0
0
80.639504
80.639504
80.639504
80.639504
80.639504
80.639504
80.639504
0
0
0
0
80.639504
80.639504
80.639504
80.639504
80.639504
80.639504
80.639504
80.639504
717.08284
717.08284
80.639504
80.639504
0
0
0
80.639504
80.639504
80.639504
80.639504
80.639504
80.639504
80.639504
80.639504
222.06862
222.06862
222.06862
222.06862
222.06862
222.06862
222.06862
222.06862
222.06862
222.06862
222.06862
222.06862
222.06862
222.06862
222.06862
222.06862
222.06862
222.06862
80.639504
80.639504
0
0
0
717.08284
717.08284
717.08284
717.08284
717.08284
717.08284
717.08284
717.08284
717.08284
222.06862
222.06862
222.06862
222.06862
222.06862
222.06862
222.06862
80.639504
80.639504
80.639504
80.639504
0
0
0
0
0
0
717.08284
717.08284
717.08284
717.08284
717.08284
717.08284
717.08284
80.639504
80.639504
80.639504
80.639504
80.639504
80.639504
80.639504
80.639504
717.08284
717.08284
717.08284
80.639504
80.639504
80.639504
80.639504
80.639504
717.08284
717.08284
717.08284
717.08284
717.08284
0
0
0
0
0
0
80.639504
80.639504
0
0
0
717.08284
0
0
0
717.08284
717.08284
717.08284
717.08284
0
0
0
0
717.08284
717.08284
80.639504
80.639504
80.639504
)


1059
(
0
0
0
0
0
291.6907
585.76158
585.76158
585.76158
585.76158
585.76158
585.76158
585.76158
0
474.75538
585.76158
585.76158
585.76158
585.76158
436.87473
585.76158
585.76158
585.76158
585.76158
0
0
585.76158
585.76158
585.76158
585.76158
585.76158
585.76158
585.76158
0
0
0
0
0
0
0
0
0
0
0
0
0
0
0
227.80796
0
0
0
227.80796
0
227.80796
227.80796
227.80796
227.80796
0
0
0
0
227.80796
227.80796
227.80796
227.80796
0
0
0
0
0
0
0
0
0
0
0
0
0
0
227.80796
227.80796
227.80796
227.80796
227.80796
227.80796
227.80796
227.80796
227.80796
227.80796
227.80796
227.80796
227.80796
227.80796
227.80796
227.80796
0
0
227.80796
227.80796
227.80796
227.80796
227.80796
227.80796
227.80796
227.80796
227.80796
0
0
227.80796
227.80796
227.80796
227.80796
227.80796
227.80796
227.80796
0
0
0
0
0
0
0
0
0
0
227.80796
227.80796
227.80796
227.80796
227.80796
227.80796
227.80796
227.80796
227.80796
227.80796
227.80796
585.76158
585.76158
585.76158
585.76158
227.80796
0
0
0
0
227.80796
0
227.80796
0
585.76158
585.76158
585.76158
585.76158
585.76158
585.76158
585.76158
0
585.76158
0
585.76158
585.76158
0
585.76158
0
585.76158
227.80796
0
0
0
0
585.76158
585.76158
585.76158
585.76158
585.76158
585.76158
585.76158
585.76158
585.76158
585.76158
585.76158
585.76158
585.76158
585.76158
585.76158
585.76158
585.76158
585.76158
585.76158
0
0
0
0
0
0
0
0
0
0
0
585.76158
585.76158
585.76158
585.76158
585.76158
585.76158
0
585.76158
0
585.76158
0
585.76158
0
585.76158
0
585.76158
0
585.76158
585.76158
0
585.76158
0
585.76158
0
585.76158
0
0
227.80796
227.80796
585.76158
585.76158
585.76158
585.76158
585.76158
585.76158
585.76158
585.76158
585.76158
227.80796
227.80796
227.80796
227.80796
227.80796
0
0
0
0
0
0
0
0
0
0
0
227.80796
0
227.80796
227.80796
0
227.80796
227.80796
0
227.80796
227.80796
0
0
0
585.76158
585.76158
585.76158
0
0
0
585.76158
585.76158
585.76158
0
0
585.76158
585.76158
585.76158
0
0
0
585.76158
585.76158
585.76158
227.80796
0
227.80796
227.80796
227.80796
227.80796
0
0
0
0
0
0
585.76158
585.76158
585.76158
585.76158
585.76158
585.76158
585.76158
585.76158
585.76158
585.76158
585.76158
585.76158
585.76158
585.76158
585.76158
227.80796
227.80796
227.80796
227.80796
227.80796
0
227.80796
227.80796
0
227.80796
227.80796
227.80796
227.80796
0
227.80796
227.80796
227.80796
227.80796
0
227.80796
0
0
0
0
0
0
585.76158
585.76158
585.76158
0
0
0
227.80796
0
0
585.76158
227.80796
0
585.76158
585.76158
585.76158
0
585.76158
585.76158
585.76158
0
585.76158
585.76158
585.76158
0
585.76158
585.76158
585.76158
0
585.76158
585.76158
585.76158
0
585.76158
585.76158
585.76158
0
585.76158
585.76158
585.76158
585.76158
585.76158
585.76158
585.76158
585.76158
585.76158
585.76158
585.76158
585.76158
585.76158
585.76158
585.76158
227.80796
227.80796
585.76158
585.76158
227.80796
227.80796
227.80796
227.80796
0
0
585.76158
585.76158
585.76158
585.76158
585.76158
585.76158
585.76158
585.76158
227.80796
0
0
585.76158
585.76158
227.80796
227.80796
227.80796
227.80796
227.80796
0
0
0
0
585.76158
585.76158
585.76158
585.76158
585.76158
585.76158
585.76158
585.76158
585.76158
585.76158
585.76158
585.76158
585.76158
585.76158
585.76158
585.76158
585.76158
585.76158
585.76158
585.76158
585.76158
585.76158
585.76158
585.76158
0
0
0
0
0
0
585.76158
585.76158
585.76158
585.76158
585.76158
585.76158
585.76158
585.76158
227.80796
227.80796
227.80796
227.80796
227.80796
169.66998
0
0
0
0
0
0
0
0
0
0
0
0
227.80796
227.80796
227.80796
585.76158
227.80796
0
0
0
0
0
0
227.80796
227.80796
227.80796
227.80796
585.76158
585.76158
585.76158
585.76158
227.80796
0
0
0
0
0
0
227.80796
227.80796
227.80796
227.80796
227.80796
0
0
0
0
0
0
585.76158
585.76158
585.76158
585.76158
585.76158
585.76158
585.76158
585.76158
585.76158
585.76158
585.76158
585.76158
585.76158
585.76158
585.76158
585.76158
585.76158
585.76158
227.80796
227.80796
0
0
0
0
0
0
0
0
0
0
0
0
585.76158
585.76158
585.76158
585.76158
585.76158
585.76158
585.76158
585.76158
585.76158
585.76158
585.76158
585.76158
585.76158
585.76158
227.80796
585.76158
227.80796
585.76158
227.80796
585.76158
227.80796
585.76158
585.76158
585.76158
585.76158
585.76158
585.76158
585.76158
227.80796
585.76158
227.80796
585.76158
227.80796
585.76158
585.76158
585.76158
585.76158
585.76158
585.76158
585.76158
585.76158
585.76158
585.76158
585.76158
0
0
0
0
0
0
0
0
0
0
0
0
227.80796
0
0
0
0
0
0
585.76158
585.76158
0
0
0
0
0
0
585.76158
585.76158
585.76158
585.76158
585.76158
585.76158
585.76158
585.76158
0
0
0
0
0
0
0
0
585.76158
585.76158
585.76158
585.76158
227.80796
227.80796
227.80796
227.80796
227.80796
227.80796
169.66998
169.66998
227.80796
227.80796
169.66998
227.80796
227.80796
227.80796
227.80796
227.80796
227.80796
227.80796
227.80796
227.80796
227.80796
227.80796
227.80796
227.80796
227.80796
227.80796
227.80796
227.80796
227.80796
227.80796
227.80796
227.80796
227.80796
227.80796
227.80796
227.80796
227.80796
227.80796
227.80796
227.80796
227.80796
227.80796
227.80796
227.80796
227.80796
227.80796
169.66998
227.80796
227.80796
169.66998
227.80796
169.66998
227.80796
227.80796
169.66998
169.66998
227.80796
227.80796
227.80796
227.80796
227.80796
227.80796
227.80796
227.80796
227.80796
227.80796
227.80796
169.66998
227.80796
169.66998
227.80796
227.80796
227.80796
227.80796
227.80796
227.80796
227.80796
169.66998
169.66998
227.80796
227.80796
169.66998
169.66998
227.80796
227.80796
227.80796
227.80796
227.80796
227.80796
227.80796
227.80796
227.80796
227.80796
227.80796
227.80796
227.80796
227.80796
227.80796
169.66998
169.66998
169.66998
169.66998
169.66998
169.66998
169.66998
169.66998
169.66998
169.66998
169.66998
169.66998
169.66998
169.66998
169.66998
169.66998
169.66998
169.66998
169.66998
169.66998
169.66998
169.66998
169.66998
169.66998
227.80796
227.80796
169.66998
169.66998
227.80796
227.80796
227.80796
227.80796
227.80796
169.66998
169.66998
169.66998
169.66998
169.66998
169.66998
169.66998
169.66998
169.66998
169.66998
169.66998
169.66998
169.66998
169.66998
227.80796
0
227.80796
169.66998
169.66998
169.66998
169.66998
169.66998
169.66998
169.66998
169.66998
169.66998
169.66998
169.66998
169.66998
169.66998
169.66998
169.66998
169.66998
169.66998
169.66998
169.66998
169.66998
169.66998
169.66998
169.66998
169.66998
169.66998
169.66998
169.66998
169.66998
169.66998
169.66998
169.66998
169.66998
169.66998
0
585.76158
585.76158
0
585.76158
585.76158
0
585.76158
585.76158
0
585.76158
585.76158
0
585.76158
585.76158
0
585.76158
585.76158
0
585.76158
585.76158
585.76158
585.76158
585.76158
585.76158
585.76158
585.76158
585.76158
585.76158
227.80796
227.80796
227.80796
227.80796
585.76158
227.80796
227.80796
0
585.76158
169.66998
169.66998
585.76158
585.76158
169.66998
169.66998
585.76158
169.66998
169.66998
227.80796
227.80796
0
585.76158
227.80796
227.80796
227.80796
227.80796
0
0
585.76158
585.76158
585.76158
585.76158
585.76158
585.76158
585.76158
585.76158
585.76158
585.76158
585.76158
585.76158
227.80796
227.80796
585.76158
169.66998
169.66998
585.76158
585.76158
169.66998
169.66998
585.76158
169.66998
169.66998
227.80796
227.80796
227.80796
227.80796
227.80796
227.80796
227.80796
227.80796
227.80796
227.80796
169.66998
169.66998
0
0
0
0
0
0
227.80796
227.80796
227.80796
227.80796
227.80796
227.80796
227.80796
0
0
0
0
227.80796
227.80796
227.80796
227.80796
227.80796
227.80796
227.80796
227.80796
585.76158
585.76158
227.80796
227.80796
0
0
0
227.80796
227.80796
227.80796
227.80796
227.80796
227.80796
227.80796
227.80796
169.66998
169.66998
169.66998
169.66998
169.66998
169.66998
169.66998
169.66998
169.66998
169.66998
169.66998
169.66998
169.66998
169.66998
169.66998
169.66998
169.66998
169.66998
227.80796
227.80796
0
0
0
585.76158
585.76158
585.76158
585.76158
585.76158
585.76158
585.76158
585.76158
585.76158
169.66998
169.66998
169.66998
169.66998
169.66998
169.66998
169.66998
227.80796
227.80796
227.80796
227.80796
0
0
0
0
0
0
585.76158
585.76158
585.76158
585.76158
585.76158
585.76158
585.76158
227.80796
227.80796
227.80796
227.80796
227.80796
227.80796
227.80796
227.80796
585.76158
585.76158
585.76158
227.80796
227.80796
227.80796
227.80796
227.80796
585.76158
585.76158
585.76158
585.76158
585.76158
0
0
0
0
0
0
227.80796
227.80796
0
0
0
585.76158
0
0
0
585.76158
585.76158
585.76158
585.76158
0
0
0
0
585.76158
585.76158
227.80796
227.80796
227.80796
)


1059
(
0
0
0
0
0
536.2201
536.2201
536.2201
536.2201
536.2201
536.2201
536.2201
536.2201
0
536.2201
536.2201
536.2201
536.2201
536.2201
536.2201
536.2201
536.2201
536.2201
536.2201
246.50683
0
536.2201
536.2201
536.2201
536.2201
536.2201
536.2201
536.2201
267.3576
0
0
0
0
0
0
0
0
0
0
0
0
0
0
381.92334
0
0
0
381.92334
0
381.92334
381.92334
381.92334
381.92334
0
0
0
0
381.92334
381.92334
381.92334
381.92334
0
0
0
0
0
0
0
0
0
0
0
0
0
0
381.92334
381.92334
381.92334
381.92334
381.92334
381.92334
381.92334
381.92334
381.92334
381.92334
381.92334
381.92334
381.92334
381.92334
381.92334
381.92334
0
0
381.92334
381.92334
381.92334
381.92334
381.92334
381.92334
381.92334
381.92334
381.92334
0
0
381.92334
381.92334
381.92334
381.92334
381.92334
381.92334
381.92334
0
0
0
0
0
0
0
0
0
0
381.92334
381.92334
381.92334
381.92334
381.92334
381.92334
381.92334
381.92334
381.92334
381.92334
381.92334
536.2201
536.2201
536.2201
536.2201
381.92334
0
0
0
0
381.92334
0
381.92334
0
536.2201
536.2201
536.2201
536.2201
536.2201
536.2201
536.2201
0
536.2201
0
536.2201
536.2201
0
536.2201
0
536.2201
381.92334
0
0
0
0
536.2201
536.2201
536.2201
536.2201
536.2201
536.2201
536.2201
536.2201
536.2201
536.2201
536.2201
536.2201
536.2201
536.2201
536.2201
536.2201
536.2201
536.2201
536.2201
0
0
0
0
0
0
0
0
0
0
0
536.2201
536.2201
536.2201
536.2201
536.2201
536.2201
0
536.2201
0
536.2201
0
536.2201
0
536.2201
0
536.2201
0
536.2201
536.2201
0
536.2201
0
536.2201
0
536.2201
0
0
381.92334
381.92334
536.2201
536.2201
536.2201
536.2201
536.2201
536.2201
536.2201
536.2201
536.2201
381.92334
381.92334
381.92334
381.92334
381.92334
0
0
0
0
0
0
0
0
0
0
0
381.92334
0
381.92334
381.92334
0
381.92334
381.92334
0
381.92334
381.92334
0
0
0
536.2201
536.2201
536.2201
0
0
0
536.2201
536.2201
536.2201
0
0
536.2201
536.2201
536.2201
0
0
0
536.2201
536.2201
536.2201
381.92334
0
381.92334
381.92334
381.92334
381.92334
0
0
0
0
0
0
536.2201
536.2201
536.2201
536.2201
536.2201
536.2201
536.2201
536.2201
536.2201
536.2201
536.2201
536.2201
536.2201
536.2201
536.2201
381.92334
381.92334
381.92334
381.92334
381.92334
0
381.92334
381.92334
0
381.92334
381.92334
381.92334
381.92334
0
381.92334
381.92334
381.92334
381.92334
0
381.92334
0
0
0
0
0
0
536.2201
536.2201
536.2201
0
0
0
381.92334
0
0
536.2201
381.92334
0
536.2201
536.2201
536.2201
0
536.2201
536.2201
536.2201
0
536.2201
536.2201
536.2201
0
536.2201
536.2201
536.2201
0
536.2201
536.2201
536.2201
0
536.2201
536.2201
536.2201
0
536.2201
536.2201
536.2201
536.2201
536.2201
536.2201
536.2201
536.2201
536.2201
536.2201
536.2201
536.2201
536.2201
536.2201
536.2201
381.92334
381.92334
536.2201
536.2201
381.92334
381.92334
381.92334
381.92334
0
0
536.2201
536.2201
536.2201
536.2201
536.2201
536.2201
536.2201
536.2201
381.92334
0
0
536.2201
536.2201
381.92334
381.92334
381.92334
381.92334
381.92334
0
0
0
0
536.2201
536.2201
536.2201
536.2201
536.2201
536.2201
536.2201
536.2201
536.2201
536.2201
536.2201
536.2201
536.2201
536.2201
536.2201
536.2201
536.2201
536.2201
536.2201
536.2201
536.2201
536.2201
536.2201
536.2201
0
0
0
0
0
0
536.2201
536.2201
536.2201
536.2201
536.2201
536.2201
536.2201
536.2201
381.92334
381.92334
381.92334
381.92334
381.92334
129.78276
0
0
0
0
0
0
0
0
0
0
0
0
381.92334
381.92334
381.92334
536.2201
381.92334
0
0
0
0
0
0
381.92334
381.92334
381.92334
381.92334
536.2201
536.2201
536.2201
536.2201
381.92334
0
0
0
0
0
0
381.92334
381.92334
381.92334
381.92334
381.92334
0
0
0
0
0
0
536.2201
536.2201
536.2201
536.2201
536.2201
536.2201
536.2201
536.2201
536.2201
536.2201
536.2201
536.2201
536.2201
536.2201
536.2201
536.2201
536.2201
536.2201
381.92334
381.92334
0
0
0
0
0
0
0
0
0
0
0
0
536.2201
536.2201
536.2201
536.2201
536.2201
536.2201
536.2201
536.2201
536.2201
536.2201
536.2201
536.2201
536.2201
536.2201
381.92334
536.2201
381.92334
536.2201
381.92334
536.2201
381.92334
536.2201
536.2201
536.2201
536.2201
536.2201
536.2201
536.2201
381.92334
536.2201
381.92334
536.2201
381.92334
536.2201
536.2201
536.2201
536.2201
536.2201
536.2201
536.2201
536.2201
536.2201
536.2201
536.2201
0
0
0
0
0
0
0
0
0
0
0
0
381.92334
0
0
0
0
0
0
536.2201
536.2201
0
0
0
0
0
0
536.2201
536.2201
536.2201
536.2201
536.2201
536.2201
536.2201
536.2201
0
0
0
0
0
0
0
0
536.2201
536.2201
536.2201
536.2201
381.92334
381.92334
381.92334
381.92334
381.92334
381.92334
129.78276
129.78276
381.92334
381.92334
129.78276
381.92334
381.92334
381.92334
381.92334
381.92334
381.92334
381.92334
381.92334
381.92334
381.92334
381.92334
381.92334
381.92334
381.92334
381.92334
381.92334
381.92334
381.92334
381.92334
381.92334
381.92334
381.92334
381.92334
381.92334
381.92334
381.92334
381.92334
381.92334
381.92334
381.92334
381.92334
381.92334
381.92334
381.92334
381.92334
129.78276
381.92334
381.92334
129.78276
381.92334
129.78276
381.92334
381.92334
129.78276
129.78276
381.92334
381.92334
381.92334
381.92334
381.92334
381.92334
381.92334
381.92334
381.92334
381.92334
381.92334
129.78276
381.92334
129.78276
381.92334
381.92334
381.92334
381.92334
381.92334
381.92334
381.92334
129.78276
129.78276
381.92334
381.92334
129.78276
129.78276
381.92334
381.92334
381.92334
381.92334
381.92334
381.92334
381.92334
381.92334
381.92334
381.92334
381.92334
381.92334
381.92334
381.92334
381.92334
129.78276
129.78276
129.78276
129.78276
129.78276
129.78276
129.78276
129.78276
129.78276
129.78276
129.78276
129.78276
129.78276
129.78276
129.78276
129.78276
129.78276
129.78276
129.78276
129.78276
129.78276
129.78276
129.78276
129.78276
381.92334
381.92334
129.78276
129.78276
381.92334
381.92334
381.92334
381.92334
381.92334
129.78276
129.78276
129.78276
129.78276
129.78276
129.78276
129.78276
129.78276
129.78276
129.78276
129.78276
129.78276
129.78276
129.78276
381.92334
0
381.92334
129.78276
129.78276
129.78276
129.78276
129.78276
129.78276
129.78276
129.78276
129.78276
129.78276
129.78276
129.78276
129.78276
129.78276
129.78276
129.78276
129.78276
129.78276
129.78276
129.78276
129.78276
129.78276
129.78276
129.78276
129.78276
129.78276
129.78276
129.78276
129.78276
129.78276
129.78276
129.78276
129.78276
0
536.2201
536.2201
0
536.2201
536.2201
0
536.2201
536.2201
0
536.2201
536.2201
0
536.2201
536.2201
0
536.2201
536.2201
0
536.2201
536.2201
536.2201
536.2201
536.2201
536.2201
536.2201
536.2201
536.2201
536.2201
381.92334
381.92334
381.92334
381.92334
536.2201
381.92334
381.92334
0
536.2201
129.78276
129.78276
536.2201
536.2201
129.78276
129.78276
536.2201
129.78276
129.78276
381.92334
381.92334
0
536.2201
381.92334
381.92334
381.92334
381.92334
0
0
536.2201
536.2201
536.2201
536.2201
536.2201
536.2201
536.2201
536.2201
536.2201
536.2201
536.2201
536.2201
381.92334
381.92334
536.2201
129.78276
129.78276
536.2201
536.2201
129.78276
129.78276
536.2201
129.78276
129.78276
381.92334
381.92334
381.92334
381.92334
381.92334
381.92334
381.92334
381.92334
381.92334
381.92334
129.78276
129.78276
0
0
0
0
0
0
381.92334
381.92334
381.92334
381.92334
381.92334
381.92334
381.92334
0
0
0
0
381.92334
381.92334
381.92334
381.92334
381.92334
381.92334
381.92334
381.92334
536.2201
536.2201
381.92334
381.92334
0
0
0
381.92334
381.92334
381.92334
381.92334
381.92334
381.92334
381.92334
381.92334
129.78276
129.78276
129.78276
129.78276
129.78276
129.78276
129.78276
129.78276
129.78276
129.78276
129.78276
129.78276
129.78276
129.78276
129.78276
129.78276
129.78276
129.78276
381.92334
381.92334
0
0
0
536.2201
536.2201
536.2201
536.2201
536.2201
536.2201
536.2201
536.2201
536.2201
129.78276
129.78276
129.78276
129.78276
129.78276
129.78276
129.78276
381.92334
381.92334
381.92334
381.92334
0
0
0
0
0
0
536.2201
536.2201
536.2201
536.2201
536.2201
536.2201
536.2201
381.92334
381.92334
381.92334
381.92334
381.92334
381.92334
381.92334
381.92334
536.2201
536.2201
536.2201
381.92334
381.92334
381.92334
381.92334
381.92334
536.2201
536.2201
536.2201
536.2201
536.2201
0
0
0
0
0
0
381.92334
381.92334
0
0
0
536.2201
0
0
0
536.2201
536.2201
536.2201
536.2201
0
0
0
0
536.2201
536.2201
381.92334
381.92334
381.92334
)


1059
(
0
0
0
0
0
411.8157
411.8157
411.8157
411.8157
411.8157
411.8157
411.8157
411.8157
284.30566
411.8157
411.8157
411.8157
411.8157
411.8157
411.8157
411.8157
411.8157
411.8157
411.8157
326.91597
308.34477
411.8157
411.8157
411.8157
411.8157
411.8157
411.8157
411.8157
411.8157
0
0
0
0
0
0
0
0
0
0
0
0
0
0
471.50949
0
0
0
471.50949
0
471.50949
471.50949
471.50949
471.50949
0
0
0
0
471.50949
471.50949
471.50949
471.50949
0
0
0
0
0
0
0
0
0
0
0
0
0
0
471.50949
471.50949
471.50949
471.50949
471.50949
471.50949
471.50949
471.50949
471.50949
471.50949
471.50949
471.50949
471.50949
471.50949
471.50949
471.50949
0
0
471.50949
471.50949
471.50949
471.50949
471.50949
471.50949
471.50949
471.50949
471.50949
0
0
471.50949
471.50949
471.50949
471.50949
471.50949
471.50949
471.50949
0
0
0
0
0
0
0
0
0
0
471.50949
471.50949
471.50949
471.50949
471.50949
471.50949
471.50949
471.50949
471.50949
471.50949
471.50949
411.8157
411.8157
411.8157
411.8157
471.50949
0
0
0
0
471.50949
0
471.50949
0
411.8157
411.8157
411.8157
411.8157
411.8157
411.8157
411.8157
0
411.8157
0
411.8157
411.8157
0
411.8157
0
411.8157
471.50949
0
0
0
0
411.8157
411.8157
411.8157
411.8157
411.8157
411.8157
411.8157
411.8157
411.8157
411.8157
411.8157
411.8157
411.8157
411.8157
411.8157
411.8157
411.8157
411.8157
411.8157
0
0
0
0
0
0
0
0
0
0
0
411.8157
411.8157
411.8157
411.8157
411.8157
411.8157
0
411.8157
0
411.8157
0
411.8157
0
411.8157
0
411.8157
0
411.8157
411.8157
0
411.8157
0
411.8157
0
411.8157
0
0
471.50949
471.50949
411.8157
411.8157
411.8157
411.8157
411.8157
411.8157
411.8157
411.8157
411.8157
471.50949
471.50949
471.50949
471.50949
471.50949
0
0
0
0
0
0
0
0
0
0
0
471.50949
0
471.50949
471.50949
0
471.50949
471.50949
0
471.50949
471.50949
0
0
0
411.8157
411.8157
411.8157
0
0
0
411.8157
411.8157
411.8157
0
0
411.8157
411.8157
411.8157
0
0
0
411.8157
411.8157
411.8157
471.50949
0
471.50949
471.50949
471.50949
471.50949
0
0
0
0
0
0
411.8157
411.8157
411.8157
411.8157
411.8157
411.8157
411.8157
411.8157
411.8157
411.8157
411.8157
411.8157
411.8157
411.8157
411.8157
471.50949
471.50949
471.50949
471.50949
471.50949
0
471.50949
471.50949
0
471.50949
471.50949
471.50949
471.50949
0
471.50949
471.50949
471.50949
471.50949
0
471.50949
0
0
0
0
0
0
411.8157
411.8157
411.8157
0
0
0
471.50949
0
0
411.8157
471.50949
0
411.8157
411.8157
411.8157
0
411.8157
411.8157
411.8157
0
411.8157
411.8157
411.8157
0
411.8157
411.8157
411.8157
0
411.8157
411.8157
411.8157
0
411.8157
411.8157
411.8157
0
411.8157
411.8157
411.8157
411.8157
411.8157
411.8157
411.8157
411.8157
411.8157
411.8157
411.8157
411.8157
411.8157
411.8157
411.8157
471.50949
471.50949
411.8157
411.8157
471.50949
471.50949
471.50949
471.50949
0
0
411.8157
411.8157
411.8157
411.8157
411.8157
411.8157
411.8157
411.8157
471.50949
0
0
411.8157
411.8157
471.50949
471.50949
471.50949
471.50949
471.50949
0
0
0
0
411.8157
411.8157
411.8157
411.8157
411.8157
411.8157
411.8157
411.8157
411.8157
411.8157
411.8157
411.8157
411.8157
411.8157
411.8157
411.8157
411.8157
411.8157
411.8157
411.8157
411.8157
411.8157
411.8157
411.8157
0
0
0
0
0
0
411.8157
411.8157
411.8157
411.8157
411.8157
411.8157
411.8157
411.8157
471.50949
471.50949
471.50949
471.50949
471.50949
61.054291
0
0
0
0
0
0
0
0
0
0
0
0
471.50949
471.50949
471.50949
411.8157
471.50949
0
0
0
0
0
0
471.50949
471.50949
471.50949
471.50949
411.8157
411.8157
411.8157
411.8157
471.50949
0
0
0
0
0
0
471.50949
471.50949
471.50949
471.50949
471.50949
0
0
0
0
0
0
411.8157
411.8157
411.8157
411.8157
411.8157
411.8157
411.8157
411.8157
411.8157
411.8157
411.8157
411.8157
411.8157
411.8157
411.8157
411.8157
411.8157
411.8157
471.50949
471.50949
0
0
0
0
0
0
0
0
0
0
0
0
411.8157
411.8157
411.8157
411.8157
411.8157
411.8157
411.8157
411.8157
411.8157
411.8157
411.8157
411.8157
411.8157
411.8157
471.50949
411.8157
471.50949
411.8157
471.50949
411.8157
471.50949
411.8157
411.8157
411.8157
411.8157
411.8157
411.8157
411.8157
471.50949
411.8157
471.50949
411.8157
471.50949
411.8157
411.8157
411.8157
411.8157
411.8157
411.8157
411.8157
411.8157
411.8157
411.8157
411.8157
0
0
0
0
0
0
0
0
0
0
0
0
471.50949
0
0
0
0
0
0
411.8157
411.8157
0
0
0
0
0
0
411.8157
411.8157
411.8157
411.8157
411.8157
411.8157
411.8157
411.8157
0
0
0
0
0
0
0
0
411.8157
411.8157
411.8157
411.8157
471.50949
471.50949
471.50949
471.50949
471.50949
471.50949
61.054291
61.054291
471.50949
471.50949
61.054291
471.50949
471.50949
471.50949
471.50949
471.50949
471.50949
471.50949
471.50949
471.50949
471.50949
471.50949
471.50949
471.50949
471.50949
471.50949
471.50949