/*--------------------------------*- C++ -*----------------------------------*\
  =========                 |
  \\      /  F ield         | OpenFOAM: The Open Source CFD Toolbox
   \\    /   O peration     | Website:  https://openfoam.org
    \\  /    A nd           | Version:  8
     \\/     M anipulation  |
\*---------------------------------------------------------------------------*/
/*   Windows 32 and 64 bit porting by blueCAPE: http://www.bluecape.com.pt   *\
|  Based on Windows porting (2.0.x v4) by Symscape: http://www.symscape.com   |
\*---------------------------------------------------------------------------*/
FoamFile
{
    version     2.0;
    format      ascii;
    class       scalarListList;
    location    "constant/air";
    object      divqrsw;
}
// * * * * * * * * * * * * * * * * * * * * * * * * * * * * * * * * * * * * * //


5
(

6092
(
0
0
0
0
0
0
0
0
0
0
0
0
0
0
0
0
0
0
0
0
0
0
0
0
0
0
0
0
0
0
0
0
0
0
0
0
0
0
0
0
0
0
0
0
0
0
0
0
0
0
0
0
0
0
0
0
0
0
0
0
0
0
0
0
0
0
0
0
0
0
0
0
0
0
0
0
0
0
0
0
0
0
-166.1477
0
0
-119.04717
0
0
0
0
-186.33038
0
-142.42429
0
0
0
0
0
-111.79479
0
0
0
0
0
0
0
0
0
0
0
0
0
0
0
0
0
0
0
0
0
0
0
0
0
0
0
0
0
0
0
0
0
0
0
-113.50831
0
0
0
0
0
0
0
0
0
0
0
0
0
0
0
0
0
0
0
0
0
0
-113.32375
0
0
0
0
0
0
0
0
0
0
0
0
0
0
0
0
0
0
0
0
0
0
0
0
0
0
0
0
0
0
0
0
0
0
0
0
0
0
0
0
0
0
0
0
0
0
0
0
0
0
0
0
0
0
0
0
0
0
0
0
0
0
-128.0471
0
0
0
0
0
0
0
0
0
0
0
0
0
0
0
-121.46849
0
0
0
0
0
0
0
0
0
0
0
0
0
0
0
0
0
-148.63126
0
0
0
0
0
0
-161.68516
0
0
0
0
0
0
0
0
0
0
0
0
0
0
-112.09048
0
0
0
0
0
0
0
0
0
0
0
0
0
0
0
0
0
0
0
0
0
0
0
0
0
0
0
0
0
0
0
0
0
0
0
0
0
0
0
0
0
0
0
0
0
0
0
0
0
0
0
0
0
0
0
0
0
0
0
0
0
0
0
0
0
0
0
0
0
0
-94.589872
0
-56.646137
0
-129.52393
0
-66.441385
-112.17378
-164.3995
-152.93158
-84.516066
0
0
-86.502793
-156.83572
0
0
-93.364709
-134.50675
0
-103.38955
-170.56416
-192.7257
-167.18117
-125.08559
0
0
0
0
0
0
0
0
0
0
0
0
0
0
0
0
0
0
0
0
0
0
0
0
0
0
0
0
0
0
0
0
0
0
0
0
0
0
0
0
0
0
0
0
0
0
0
0
0
0
0
0
0
0
0
0
0
0
0
0
0
0
0
0
0
0
0
0
0
0
0
0
0
0
0
0
0
0
0
0
0
0
0
0
0
0
0
0
0
0
0
0
0
0
0
0
0
0
0
0
0
0
0
0
0
0
0
0
0
0
0
0
0
0
0
0
0
0
0
0
0
0
0
0
0
0
0
0
0
0
0
0
0
0
0
-92.247384
0
-86.227604
0
-79.429944
-66.605207
0
-175.9727
0
0
-114.58475
-180.19845
0
-107.94192
0
0
0
0
0
0
0
0
0
0
0
0
0
0
0
0
0
0
0
0
0
0
0
0
0
0
0
0
0
0
0
0
0
0
0
0
-84.495163
-49.362727
0
0
0
0
0
-79.707003
-79.294683
0
0
0
0
0
0
0
0
0
0
0
0
0
0
0
0
0
0
0
0
0
0
0
0
0
0
0
0
0
0
0
0
0
0
0
0
0
0
0
0
0
0
0
0
0
0
0
0
0
0
0
0
0
0
0
0
0
0
0
0
0
0
0
0
0
0
0
0
0
0
0
0
0
0
0
0
0
0
0
0
0
0
0
0
0
0
0
0
0
0
0
0
0
0
0
0
0
0
0
0
0
0
0
0
0
0
0
0
0
0
0
0
0
-119.81502
0
0
0
0
0
0
0
-153.75472
0
-115.25326
0
0
0
0
0
-168.07751
-138.22229
0
0
0
0
0
0
-103.98259
0
0
0
0
0
0
0
0
0
0
0
0
0
0
0
0
0
0
0
0
0
0
0
0
0
0
0
0
0
0
0
0
0
0
0
0
0
0
0
0
0
0
0
0
0
0
0
0
0
0
0
0
0
0
0
0
0
0
0
0
0
0
0
0
0
0
0
0
0
0
0
0
-132.63872
0
0
-104.14776
-139.77368
-144.03207
-90.714992
-105.9138
-108.77542
-170.23644
-138.8305
-95.140997
-149.02632
-93.53689
-83.728941
0
-46.062061
0
-68.166006
-65.112565
0
-111.04583
0
-101.49063
-125.61247
-115.60492
-95.608564
-138.64579
-96.582435
-134.347
-112.15883
-61.434814
-81.690664
-137.14767
-82.413485
0
0
0
-86.745225
0
-67.722536
0
-131.66275
0
-103.39434
-168.07046
-153.73404
-131.30637
-160.11155
-175.21893
0
-98.831363
0
-164.06046
-108.30624
0
-184.04402
-139.96187
-199.53612
-179.1407
-190.22551
-166.10246
-141.22582
-119.44444
0
-107.00584
-141.36047
-137.50759
-118.82535
-151.14757
-181.26776
-152.49647
-137.05414
-163.55072
-180.45675
-142.3636
-157.67809
0
0
-88.376305
-158.4067
0
-97.733517
0
0
0
0
0
-131.04101
0
0
0
0
0
0
0
0
0
0
0
0
0
0
0
0
0
0
0
0
0
0
0
0
-127.49684
0
-57.428178
0
0
-78.860604
0
0
0
0
0
0
0
0
0
0
0
0
0
0
0
0
0
0
0
0
0
0
0
0
0
0
0
0
0
0
0
0
0
0
0
0
0
0
0
0
0
0
0
0
0
0
0
0
0
0
0
0
0
0
0
0
0
0
0
0
0
0
0
0
0
0
0
0
0
0
0
0
0
0
0
0
0
0
0
0
0
0
0
0
0
0
0
0
0
0
0
0
0
0
0
0
0
0
0
0
0
0
0
0
0
0
0
0
0
0
0
0
0
0
0
0
0
0
0
0
0
0
0
-101.1852
0
-112.65406
0
0
0
0
0
0
0
0
0
0
0
0
0
0
0
0
0
0
0
0
0
0
0
0
0
0
0
0
0
0
0
0
0
0
0
0
0
0
0
0
0
0
0
0
0
0
0
0
0
0
0
0
0
0
0
0
0
0
0
0
0
0
0
0
0
0
0
0
0
0
0
0
0
0
0
0
0
0
0
0
0
0
0
0
0
0
0
0
0
0
0
0
0
0
0
0
0
0
0
0
0
0
0
0
0
0
0
0
0
0
0
0
0
0
0
0
-103.44217
0
-108.37184
-94.582759
0
0
0
0
-87.354039
0
0
0
0
0
0
0
0
0
0
0
0
0
0
0
0
0
0
0
0
0
0
0
0
0
0
0
0
0
0
0
0
0
0
0
0
0
0
0
0
0
0
0
0
0
0
0
0
0
0
0
0
0
0
0
0
0
0
0
0
0
0
0
0
0
0
0
0
0
0
0
0
0
0
0
0
0
0
0
0
0
0
0
0
0
0
0
0
0
0
0
0
0
0
0
0
0
0
0
0
0
0
0
0
0
0
0
0
0
0
0
0
0
0
0
0
0
0
0
0
0
0
0
0
0
0
0
0
0
0
0
0
0
0
0
0
0
0
0
0
0
0
0
0
0
0
0
0
0
0
0
0
0
0
0
0
0
0
-128.95277
0
0
0
0
0
0
-139.00657
0
0
0
0
0
0
0
0
0
0
0
0
0
0
0
0
0
0
0
0
0
0
0
0
0
0
0
0
0
0
0
0
0
0
0
0
-138.96255
-103.68714
0
0
0
0
-67.016258
0
0
0
0
0
0
0
0
0
0
0
0
0
0
0
0
0
0
0
-139.59763
-104.86627
0
-113.03957
0
0
0
0
0
0
0
0
0
0
0
0
0
0
0
0
0
0
0
0
0
0
0
0
0
0
0
0
0
0
0
0
0
0
0
0
0
0
0
0
0
0
0
-118.53281
0
0
-109.3191
0
0
0
0
0
0
0
0
0
-106.2527
-149.20089
-77.034121
0
0
0
0
0
-139.37726
0
0
-59.820168
0
0
0
0
0
0
0
0
0
0
0
0
0
0
0
0
0
0
0
0
0
0
0
0
0
0
-67.854312
0
0
0
-108.95437
-174.26994
-115.25774
0
0
0
0
0
-166.04927
0
-100.37708
0
0
0
0
0
0
0
0
0
0
0
0
0
0
0
0
0
0
0
0
0
0
0
0
0
0
0
0
0
0
0
0
0
0
0
0
0
0
0
0
0
0
0
0
0
0
0
0
0
-105.57151
0
0
-101.03182
0
0
0
0
0
0
0
0
0
0
0
0
0
0
0
0
0
0
0
0
0
0
0
0
0
0
0
0
0
0
0
0
0
0
0
0
0
0
0
0
0
0
0
0
0
0
0
0
0
0
0
0
0
0
0
0
0
0
0
0
0
0
0
0
0
0
0
0
0
-52.475366
0
0
0
-73.703503
-102.34756
-71.806479
-70.674985
-76.599301
0
0
0
0
0
0
0
0
0
0
-79.918884
0
-55.239649
0
-60.729048
0
0
0
0
0
0
0
-123.14796
-123.44075
-115.40956
-132.62554
-144.81309
-133.83824
-144.31731
0
0
-79.568059
-101.12391
0
-74.619576
-70.555143
-96.810852
0
-92.298635
-110.69246
-83.704006
-110.83868
-83.234237
-129.08207
-101.21223
-125.25804
-120.20244
-124.85184
-105.02815
-133.84754
-148.9032
-145.894
-172.55862
-137.97673
-119.87489
-157.23963
-165.46897
-148.93493
-156.32335
-139.1691
-162.87503
-144.29507
-148.31678
-163.40733
-122.49678
-67.513234
-108.87572
-111.63482
-94.146719
-91.367128
-134.54133
0
0
0
0
0
0
-84.574415
0
0
0
0
0
0
0
-80.155765
0
0
-82.594298
-119.48869
-113.2425
-86.837206
-96.898413
-138.21649
-115.23536
-152.6212
-111.50298
-134.01695
-100.7522
0
0
0
0
-58.75701
0
0
0
0
-71.828243
0
-68.731283
-61.768505
0
-77.571685
-79.574236
-122.62495
-61.266291
-90.772859
0
-106.45806
-130.06125
-135.93429
-125.84875
-156.78143
-154.85137
-155.80418
-162.98341
0
-69.003144
-87.049894
-121.02239
-75.165234
-95.628595
-104.3303
-118.9661
-93.97325
-108.3323
-140.83215
-137.77736
-149.99963
-129.70915
-162.00402
-156.37298
-176.42117
-166.83102
-167.18906
-151.70537
-172.76249
-173.56384
-174.24906
-188.04389
-175.67143
-156.60665
-182.07356
-183.81635
-178.94085
-167.69989
-182.02013
-177.8577
-175.81376
-178.76235
-186.32738
-149.87505
-108.13099
-148.22283
-147.19232
-130.8228
-132.18187
-162.50509
0
0
0
0
0
0
0
0
0
0
0
0
0
0
0
0
0
0
0
0
0
0
0
0
0
0
0
0
0
0
0
0
0
0
0
0
0
0
0
0
0
0
0
0
0
0
0
0
0
0
0
0
0
0
0
0
0
0
0
0
0
0
0
0
0
0
0
0
0
0
0
0
0
0
0
0
0
0
0
0
0
0
0
0
0
0
0
0
0
0
0
0
0
0
0
0
0
0
0
0
0
0
0
0
0
0
0
0
0
0
0
0
0
0
0
0
0
0
0
0
-78.401421
0
0
-46.708748
0
-46.329398
-77.403863
0
0
0
0
0
0
0
0
0
0
0
0
0
0
0
0
0
0
0
0
0
0
0
0
0
0
0
0
0
0
0
0
0
0
0
0
0
0
0
0
0
0
0
0
0
0
0
0
0
0
0
0
0
0
0
0
0
0
0
0
0
0
0
0
0
0
0
0
0
0
-80.604406
0
-87.106561
0
0
0
0
0
0
0
0
0
-106.72929
-171.66868
0
0
0
0
0
0
0
0
0
0
0
0
0
0
0
0
0
0
0
0
0
0
0
0
0
0
0
0
0
0
0
-114.13114
0
-101.50139
-115.347
-124.29392
-131.47307
-106.89119
-155.23925
-150.55469
-179.56484
-168.31443
-155.02754
-175.12678
-159.40437
0
0
0
0
0
0
0
-103.33823
-123.02333
-120.54837
-98.481686
-100.58505
-122.5007
-103.28443
-114.10958
0
-115.62055
-146.48126
-132.66416
-138.46416
-134.12935
-59.153759
0
0
0
-50.813114
0
0
-202.99859
-184.89867
-205.7919
-182.1147
-192.16863
-193.94243
-202.39116
-175.39733
-146.74039
-157.57061
-144.72868
-168.35017
-148.35269
-166.13233
0
0
0
0
0
0
0
0
-119.24267
0
-94.277461
0
-101.38493
-110.51039
0
0
0
0
0
0
0
0
0
0
0
0
0
0
0
0
0
0
0
0
0
0
0
0
0
0
0
0
0
0
0
0
0
0
0
0
0
0
0
0
0
0
0
0
0
0
0
0
0
-69.653245
0
0
0
0
0
0
-68.953189
0
0
0
0
0
0
0
0
0
0
0
0
0
0
0
0
0
0
0
0
0
0
0
0
0
0
0
0
0
0
0
0
0
0
0
0
0
0
0
0
0
0
0
0
0
0
0
0
0
0
0
0
0
0
0
0
0
0
0
0
0
0
-126.62671
-136.50789
-132.28191
-115.03943
0
-143.86541
-130.34954
0
0
0
0
0
0
0
0
0
0
0
0
0
0
-150.25879
-141.01106
-168.79921
-126.95855
-157.03929
-127.16161
-151.71224
0
0
0
0
0
0
0
-138.54218
-155.30125
-185.21808
-132.99786
-175.37805
-119.41054
-158.05039
0
0
0
0
0
0
0
0
0
0
0
0
0
0
0
0
0
0
0
0
0
0
0
0
0
0
0
0
0
0
0
0
0
0
0
0
0
0
0
0
0
0
0
0
0
0
0
0
0
0
0
0
0
0
0
0
0
0
0
0
0
0
0
0
0
0
0
0
0
0
0
0
0
0
0
0
0
0
0
0
0
0
0
0
0
0
0
0
0
0
0
0
0
0
0
0
0
0
0
0
0
0
0
0
0
0
0
0
0
0
0
0
0
0
0
0
0
0
0
0
0
0
0
0
0
0
0
0
0
0
0
0
0
0
0
0
0
0
0
0
0
0
0
-100.3219
-76.780737
-76.006383
-71.574577
-85.691872
-94.149764
-70.541127
0
0
0
0
0
0
0
-63.951483
-63.250851
-88.078158
-84.622349
-60.805557
-64.815089
-86.42034
-45.486294
0
-45.435029
0
-42.814371
-48.397384
0
-67.389786
-79.423007
-90.02655
-62.654479
-66.625688
-88.498101
-64.575179
-84.033866
-46.344535
-62.023367
-63.130593
-75.592782
-53.961298
-85.237086
0
0
0
-49.686889
0
-53.710815
0
-130.29605
-171.5454
-126.6989
-139.46427
-194.06615
-141.23754
-190.28942
-85.437647
0
-79.561565
0
0
-83.709828
-83.955667
0
0
-69.651828
-78.834403
0
0
-47.92535
-116.76459
-81.450013
-151.27429
-121.59461
-83.840845
-115.52102
-154.99622
-138.08843
-188.45339
-130.30546
-189.82476
-136.78408
-135.85321
-190.03469
-82.559843
0
-79.800012
-87.335385
0
0
-87.974443
-139.44111
-72.574789
-104.57613
-118.05832
-123.14295
-84.507281
-156.93355
0
0
0
0
0
0
0
0
0
0
0
0
0
0
0
0
0
0
0
0
0
0
0
0
0
0
0
0
0
0
0
0
0
0
0
0
0
0
0
0
0
0
0
0
-83.698394
0
0
0
0
0
0
-66.639564
0
0
0
0
0
0
0
0
0
0
0
0
0
0
0
0
0
0
0
0
0
0
0
0
0
0
-49.331478
-89.143937
0
-51.866821
0
-60.366746
0
0
-91.474198
0
-51.831991
0
0
0
0
0
0
0
0
0
0
0
0
0
0
0
0
0
0
0
0
0
0
0
0
0
0
0
0
0
0
0
0
0
0
0
0
0
0
0
0
0
0
0
0
0
0
0
0
0
0
0
-93.365858
0
0
0
0
0
0
0
0
0
0
0
0
0
0
0
0
0
0
0
0
0
0
0
0
0
0
0
0
0
-101.49797
-139.11126
-101.98032
-80.811075
-83.059172
-96.245508
0
0
-42.793026
-72.864339
0
0
0
0
-123.38073
-56.76598
-85.641281
0
0
-91.151402
0
0
0
0
0
0
0
0
0
0
0
0
0
0
0
0
0
0
0
0
0
0
0
0
0
0
0
0
0
0
-86.07474
-150.81911
0
0
0
0
-126.1127
-158.98784
-186.43739
-116.09173
-83.26563
-107.31339
0
-124.77349
-150.38757
-172.7568
-98.129634
0
0
-104.98556
0
0
0
0
0
0
0
0
0
0
0
0
0
0
0
0
0
0
0
0
0
0
0
0
0
0
0
0
0
0
0
0
0
0
0
0
0
0
0
0
0
0
0
-50.303434
0
0
0
0
0
0
0
0
0
0
0
0
0
0
0
0
0
0
0
0
0
0
0
0
0
0
0
0
0
0
0
0
0
0
0
0
0
0
0
0
0
0
0
0
0
0
0
-124.93186
-123.62982
-143.06145
-114.99798
-131.22437
-124.02543
-137.31139
0
0
0
-95.566713
0
-72.35782
-88.28537
-98.496674
0
-82.219952
-94.428672
-108.57332
-103.6899
-79.83412
-95.953547
-116.88075
-118.7428
-112.79352
-96.0322
-110.60633
-90.040764
-128.86226
-144.7103
-141.49338
-123.35982
-125.08047
-146.98512
-124.62076
-150.19312
-130.45249
-137.63972
-132.88399
-142.63283
-126.71085
-148.34972
-108.45312
-80.828864
-93.593256
-107.19452
-108.93119
-85.444132
-104.40426
-119.65605
-115.51087
-130.18485
-126.3843
-99.624321
-110.64691
-114.03833
-133.6942
-130.47803
-111.42833
-110.83782
-110.15763
-134.2584
-136.37108
-174.44606
-145.06524
-157.04633
-156.30075
-175.77396
-175.74089
-152.17735
-133.58456
-161.82003
-145.1225
-141.81883
-144.57489
-128.00933
-160.26048
-109.36381
-120.14958
-134.39549
-134.12647
-102.27888
-109.80892
-128.37584
-68.876497
-54.629142
-76.642835
-75.491349
-62.391152
-68.046542
-61.175535
0
0
-38.923991
0
-42.209015
0
0
-41.424877
0
-50.458547
-51.317197
-37.063305
-54.989372
0
0
0
0
0
0
0
0
-48.528137
-69.92781
-53.271869
-57.773469
-56.269061
-44.732126
-61.050006
-47.372203
-69.575333
-57.958498
0
-62.036908
-53.835279
0
0
0
0
0
-47.054774
0
0
-109.55468
-93.840471
-89.126411
-87.447054
-102.20439
-102.3332
-79.338964
-110.72254
-128.73355
-135.25857
-116.88131
-117.99411
-128.76825
-110.1957
-85.186621
-78.002793
-64.793648
-67.173576
-81.188935
-69.073294
-84.389596
-85.580834
-81.795932
-95.764862
-69.310578
-83.890515
-95.267101
-71.629378
-122.66573
-110.75813
-136.10592
-129.43936
-118.77675
-115.00478
-128.65053
-93.141525
-84.967845
-99.657331
-74.56195
-101.03547
-76.806944
-92.081331
0
0
0
0
0
0
0
0
0
0
0
0
0
0
-70.12706
-64.948883
0
0
-79.0096
-66.114233
-58.077243
0
0
0
0
0
0
0
0
0
-72.993254
0
-61.141216
0
0
0
0
0
0
0
0
0
-133.0025
-123.03484
-150.43341
-124.4528
-159.63925
-152.9822
-144.41101
0
0
-110.83196
-146.19792
0
-128.15348
-128.73757
-118.0874
-101.33472
-136.46294
-115.0915
-149.48974
-147.87418
-134.16824
-154.38818
-176.63791
-167.13464
-167.52007
-166.28352
-177.65712
-152.75249
-166.4573
-154.10843
-160.42844
-155.55532
-156.20682
-170.97112
-155.42211
-168.75898
-120.28576
-161.44374
-161.51606
-179.91532
-147.80619
-150.78101
-161.83662
-177.30018
-174.33869
-170.186
-157.67327
-158.79588
-174.01627
-132.99819
-146.88512
-189.98433
-169.77944
-143.49085
-185.69354
-134.96799
-76.272274
0
-73.959038
0
-81.773389
-65.950386
0
-105.3945
-60.903982
-130.50326
-110.62542
-91.30614
-147.60343
-69.433824
-66.629272
0
0
0
-62.680785
0
0
-130.73725
-176.66897
-122.60043
-151.27373
-133.18323
-113.79199
-168.10825
-118.20841
-146.46941
-119.14662
-69.719394
-160.81399
-106.33916
-78.020733
-84.860221
-85.781604
0
0
-89.020395
-81.768562
0
-184.90445
-181.15287
-182.86248
-192.34055
-196.82871
-194.72527
-192.62521
-184.71767
-158.25072
-166.61083
-153.62189
-175.14168
-175.32009
-173.52436
-192.27507
-188.32103
-193.76317
-203.32612
-205.76094
-195.88073
-200.80207
-184.00041
-179.35982
-193.20509
-199.59822
-164.48371
-180.34244
-185.40446
-163.71546
-161.02768
-174.70055
-186.42048
-156.87492
-178.64387
-174.53158
-185.58758
-196.83239
-193.9206
-179.55808
-187.43865
-192.55387
-193.90861
-177.84002
-150.31818
-164.80181
-154.06573
-151.70941
-174.77491
-168.52566
-200.72668
-163.01118
-168.58732
-148.33223
-190.20126
-182.15405
-174.86904
-195.50016
-188.00619
-173.91498
-190.25121
-189.71269
-184.98343
-193.38852
-201.46443
-174.98435
-170.05853
-153.54348
-190.79773
-188.57328
-178.13449
-179.56629
-179.49824
-155.7696
-154.55271
-153.10382
-177.15982
-181.05926
0
0
0
0
0
-102.14373
0
0
0
0
0
0
0
0
0
0
-121.2408
0
-88.95192
0
-119.50815
-140.27118
-117.61889
-102.94569
-104.32267
-153.65296
-137.35363
-119.21013
0
0
0
0
0
0
0
-81.92342
-87.296596
-132.33544
0
-118.21503
-93.798311
0
0
-74.147499
-64.119791
0
0
-71.305275
0
0
0
0
0
0
0
0
0
-132.67704
0
-118.69195
-117.30116
0
0
0
0
0
0
0
0
0
0
0
0
-105.41595
0
0
0
0
0
0
0
0
0
0
0
0
0
0
0
0
0
0
0
0
0
0
0
0
0
-123.65117
0
-113.23521
-107.44656
0
-113.74782
0
0
0
0
0
0
0
0
-74.479522
0
-64.383918
0
-83.082584
0
0
0
0
0
0
0
0
0
0
0
0
0
0
0
0
0
-98.112779
-71.394669
-90.683665
0
0
0
0
0
0
0
0
0
0
0
0
0
0
0
0
0
0
0
0
0
0
0
0
0
0
0
0
0
0
0
0
0
0
0
0
0
-88.563723
0
0
0
0
0
0
0
0
0
0
0
0
0
0
0
0
0
0
0
0
0
0
0
0
0
0
0
0
0
0
0
0
0
0
-90.094354
0
0
0
0
0
0
0
0
0
0
0
0
0
0
0
0
0
0
0
0
0
0
0
0
0
0
0
0
0
0
0
0
0
0
0
0
0
0
0
0
0
0
0
0
0
0
0
0
0
-137.71445
-138.28901
0
-133.14948
0
0
0
0
-132.17278
0
-124.33716
0
0
0
0
0
0
0
0
0
0
0
0
0
0
0
0
0
0
-75.386914
0
0
0
0
0
0
0
0
0
0
0
0
-81.715007
0
0
0
0
0
0
0
0
0
0
0
0
0
0
0
0
0
0
0
-131.39211
-139.53566
-143.0116
0
-147.29178
-133.13559
0
0
-128.27791
-116.83114
0
0
-142.05449
0
0
0
0
0
0
0
0
0
-139.76645
-122.78257
0
-147.2167
0
0
0
0
0
0
0
0
0
0
0
0
0
0
0
0
0
0
0
0
0
0
0
0
0
0
0
0
0
0
0
0
0
0
0
0
0
-142.36455
-126.90173
-111.60153
-98.434343
-107.50519
-138.82415
-122.93418
-127.30927
-128.43974
-159.38096
-126.01121
-141.77219
-107.98108
-139.44195
-104.62734
-116.25102
-94.419478
0
-84.868567
-121.82093
-89.882117
0
0
0
0
0
0
0
0
0
0
0
0
0
0
0
0
0
0
0
0
0
0
0
0
0
0
0
0
0
0
0
0
0
0
0
-116.98855
-113.58079
-92.729226
0
-113.49487
-88.823
0
0
-87.21931
-69.857544
0
0
0
0
0
0
0
0
0
0
0
0
0
0
0
0
0
0
0
0
0
0
0
0
0
0
0
0
0
0
0
0
0
0
0
0
0
0
0
0
0
0
0
0
0
0
0
0
0
0
0
0
0
-117.05749
-133.25308
-127.55079
-79.227363
-93.311127
-152.20972
-100.50424
-160.39604
-136.74034
-182.50876
-141.64312
-172.87362
-153.86995
-125.19175
-139.80508
-118.241
-130.89938
-84.583294
-96.278975
-153.1671
-106.64152
0
0
0
0
0
0
0
0
0
0
0
0
0
0
0
0
0
0
0
0
0
0
0
0
0
0
0
0
0
0
0
0
0
0
0
-140.62107
-147.8882
-126.01862
0
-129.63451
0
-113.76418
0
-126.32135
-107.3258
0
0
0
-95.068177
0
0
0
0
0
0
0
0
0
0
0
0
0
0
0
0
0
0
0
0
0
0
0
0
0
0
0
0
0
0
0
0
0
0
0
0
0
0
0
0
0
0
0
0
0
0
0
0
0
0
0
-77.054715
0
0
0
0
0
0
0
0
0
0
0
0
0
0
0
0
0
0
0
0
0
0
0
0
0
0
0
0
0
0
0
0
0
0
0
0
0
0
0
0
0
0
0
0
0
0
0
0
0
0
0
0
0
0
0
0
0
0
0
0
0
0
0
0
0
0
0
0
0
0
0
0
0
0
0
0
0
0
0
0
0
0
0
0
0
0
0
0
0
0
0
0
0
0
0
0
0
0
0
0
0
0
0
0
0
0
0
0
0
0
0
0
0
0
0
0
0
0
0
0
0
0
0
0
0
0
0
0
0
0
0
0
0
0
0
0
0
0
0
0
0
0
0
0
0
0
0
0
0
0
0
0
0
0
0
0
0
0
-120.52357
0
0
0
-111.08408
-107.63338
0
-141.3976
-162.41942
-155.56832
-157.14666
-141.99168
-157.74444
-131.92253
0
0
0
0
0
0
0
-118.64105
-92.474155
-97.420599
-94.083604
-110.53165
-116.13888
-86.258315
0
0
0
0
0
0
0
-166.95152
-170.68234
-180.71684
-167.10934
-150.59862
-159.8075
-147.93418
-148.86488
-141.12069
-161.30505
-154.27177
-134.41774
-140.19383
-137.78658
0
0
0
0
0
0
0
0
-85.664463
0
0
-95.613977
0
-76.428648
-121.66365
-102.06758
-99.517762
-71.312916
-109.72764
-102.38472
-77.008298
-134.8704
-108.18597
-99.642615
-79.311026
-117.1525
-113.87033
-83.586556
-58.969791
-90.50129
-66.580413
-68.654008
-75.355608
0
-92.914539
0
0
0
0
0
0
0
-99.380017
-70.512569
-73.391477
-80.064537
-94.828684
-108.40169
-78.335917
0
-97.409189
0
0
-110.36801
0
0
0
0
0
0
0
0
0
0
0
0
0
0
-90.089068
0
0
0
0
0
0
0
0
0
-74.308053
-81.617222
-73.223842
0
0
-64.481173
-78.514021
-147.00102
-114.01751
-103.77206
-93.896591
-70.069473
-134.40621
-123.94995
-189.68966
-135.38428
-124.4027
-155.27939
-110.19559
-177.62148
-103.68847
-125.54534
0
0
-88.849063
-145.45159
0
0
0
0
0
0
0
0
0
0
0
0
0
0
0
0
-75.360619
0
0
0
-110.57944
0
0
0
0
0
0
0
0
0
0
0
0
0
0
0
0
0
0
0
0
0
0
0
0
0
0
0
0
0
0
0
0
0
-56.772343
0
0
0
0
0
0
0
0
0
0
0
0
0
0
0
0
0
0
0
0
0
0
0
0
0
0
0
0
0
0
0
0
0
0
0
0
0
-114.19692
0
0
0
0
0
-98.707671
0
0
0
0
0
0
0
0
0
0
0
0
0
0
0
0
0
0
0
0
0
0
0
0
0
0
0
0
0
0
0
0
0
0
0
0
0
0
0
0
0
0
0
0
0
0
0
0
0
-121.60741
-113.96377
-135.75244
-137.78682
-94.82818
-117.13215
-113.18018
-152.10004
-125.63726
-140.82632
-142.93164
-138.88813
-127.63472
-150.27096
-118.29252
-113.93172
-129.83153
-135.52421
-109.45881
-128.63156
-118.31469
-125.32484
-107.03646
-84.782388
0
-126.55012
-110.24589
-94.433311
-136.86554
-115.07271
-98.29428
0
-101.40304
-132.07029
-109.61286
-126.46123
-121.34562
-89.476478
-98.994698
-114.57369
-96.130359
-128.69326
-123.91298
-82.850794
0
0
-110.05611
-91.33581
-96.175525
0
0
0
0
0
0
0
0
-49.558532
-37.006014
0
0
-48.730732
0
-58.366602
-59.627553
-47.200128
-49.736035
-77.616898
-63.477784
-61.546886
0
-79.033611
0
0
0
-61.565011
0
0
0
0
0
0
0
0
0
0
0
0
0
0
0
-121.04682
-110.03971
-101.46529
-100.66325
-123.93969
-111.29346
-120.42781
-71.613246
-62.76475
-77.95649
-74.364793
-52.064656
-60.764173
-64.606315
-97.752655
-70.272945
-83.478153
-83.074254
-89.829762
-100.19151
-71.36953
-76.881089
-87.404252
-73.722239
0
-93.652054
-68.599396
-61.730356
-83.089857
-94.155144
-78.814892
0
-65.155665
-100.78495
-74.009483
-90.872428
-110.89931
-81.432447
-85.34142
-101.18918
-73.220139
-106.20416
-66.521976
0
0
0
-56.444439
0
-55.834166
0
0
0
0
0
0
0
0
0
0
0
0
0
0
0
0
0
0
0
0
0
0
0
0
0
0
0
0
0
0
0
0
0
0
0
0
0
0
0
0
0
0
0
0
0
0
0
0
0
0
0
0
0
0
0
0
0
0
0
0
0
0
0
0
0
0
0
0
0
0
0
0
0
0
0
0
0
0
0
0
0
0
0
0
0
0
0
0
0
0
0
0
-64.594931
-53.524825
0
0
-52.745891
0
-50.959304
-113.8346
-74.668308
-56.504999
-71.319868
0
-93.672331
-110.34145
-133.70141
-94.625477
-72.862725
-131.97939
-93.01501
-112.18353
0
-103.29848
0
0
-70.946721
-83.693431
0
0
0
0
0
0
0
0
0
0
0
0
0
-67.760632
0
0
0
0
0
0
0
0
-142.66382
-157.72193
-165.4472
-152.31804
-109.15745
-143.3237
-124.7547
-166.17871
-182.75374
-184.1065
-176.41585
-156.87728
-160.42595
-181.27887
-184.87926
-194.11436
-183.69528
-176.15172
-176.67914
-173.98298
-191.98813
-146.25061
-146.35916
-133.22307
-113.7575
-143.82743
-162.48128
-116.19217
-132.86574
-117.86285
-95.903164
-81.71329
-129.37984
-98.836038
-115.42994
-144.55158
-134.08485
-123.19351
-103.27895
-133.6638
-152.48443
-112.63127
-123.35472
-85.994385
-88.62416
0
-116.13079
-93.8315
-97.796069
-149.79231
-154.54598
-178.38908
-165.65571
-109.3216
-136.28576
-137.27142
-145.12702
-175.26428
-167.64918
-162.69994
-149.59228
-142.8326
-172.9569
-162.70186
-187.3718
-184.14741
-177.11184
-160.16881
-147.34146
-182.68393
-139.6764
-129.27937
-82.122983
-119.22629
-115.01986
-150.98807
-103.26516
-123.83473
-112.67984
0
-90.011074
-111.43538
-116.23426
-91.863585
-126.49134
0
0
0
-103.29388
-103.31365
-88.432753
-133.14211
-129.26207
-115.22265
-96.405646
-121.75832
-144.47132
-102.42965
0
0
0
0
0
0
0
0
0
0
0
0
0
0
0
0
0
0
0
0
0
0
0
0
0
0
0
0
0
0
0
0
0
0
0
0
0
0
0
0
0
0
0
0
0
0
0
0
0
0
0
0
0
0
0
0
0
0
0
0
0
0
0
0
0
0
0
0
0
0
0
0
0
0
0
0
0
0
0
0
0
0
0
0
0
0
0
0
0
0
0
0
0
0
0
0
0
0
0
0
0
0
0
0
0
0
0
0
0
0
0
0
0
0
0
0
0
0
0
0
0
0
0
0
0
0
-65.400851
0
0
0
0
0
0
0
0
0
0
0
0
0
0
0
0
0
0
0
0
0
0
0
0
0
0
0
0
0
0
0
0
0
0
0
0
0
0
0
0
0
0
0
0
0
0
0
0
-106.92489
0
-91.724696
0
-71.726541
0
-87.707745
0
0
0
0
0
0
0
0
0
0
0
0
0
0
0
0
0
0
0
0
0
0
-85.61684
0
0
-80.446012
0
0
0
0
0
0
0
0
0
0
0
0
0
0
0
0
0
0
0
0
0
0
0
0
0
0
0
0
0
0
-114.12371
-64.060282
-83.498511
-66.327831
-71.541
0
-94.34095
0
0
0
0
0
0
0
0
0
0
0
0
0
0
0
0
0
0
0
0
0
0
-89.745978
0
0
-87.243935
0
0
0
0
0
0
0
-71.683809
0
0
0
0
0
0
0
0
0
0
0
0
0
0
0
0
0
0
0
0
0
0
0
0
0
0
0
0
0
0
0
0
0
0
0
0
0
0
0
0
0
0
0
0
0
0
0
0
0
0
0
0
0
0
0
0
0
0
0
0
0
0
0
0
0
0
0
0
0
0
0
0
0
0
0
0
0
0
0
0
0
0
0
0
0
0
0
0
0
0
0
0
0
0
0
0
0
0
0
0
0
0
0
0
0
0
0
0
0
0
0
0
0
0
0
0
0
0
0
0
0
0
0
0
0
0
0
0
0
0
0
0
0
0
0
0
0
0
0
0
0
0
0
0
0
0
0
0
0
0
0
0
0
-122.47186
-93.301842
-109.27096
-110.36807
-105.61296
-125.25969
-108.4376
-192.00481
-194.12538
-188.91927
-193.88396
-192.86537
-187.94654
-194.08385
0
0
0
0
0
0
0
0
0
0
0
0
0
0
0
0
0
0
0
0
0
0
0
0
0
0
0
0
0
0
0
0
0
0
0
0
0
0
0
0
0
0
0
0
0
0
0
0
0
0
0
0
0
0
0
0
0
0
0
0
0
0
0
0
0
0
0
0
0
0
0
0
0
0
0
0
0
0
0
0
0
0
0
0
0
0
0
0
0
0
0
0
0
0
0
0
0
0
0
0
0
0
0
0
0
0
0
0
0
0
0
0
0
0
0
0
0
0
0
0
0
0
0
0
0
0
0
0
0
0
0
0
0
0
0
0
0
0
0
0
0
0
0
0
0
0
0
0
0
0
0
0
0
0
0
0
0
0
0
0
0
0
0
0
0
0
0
0
0
0
0
0
0
0
0
0
0
0
0
0
0
0
0
0
0
0
0
0
0
0
0
0
0
0
0
0
0
0
0
0
0
0
0
0
0
0
0
0
0
0
0
0
0
0
0
0
0
0
0
0
0
0
0
0
0
0
0
0
0
0
0
0
0
0
0
0
0
0
0
0
0
0
0
0
0
0
0
0
0
0
0
0
0
0
0
0
0
0
0
0
0
0
0
0
0
0
0
0
0
0
0
0
0
0
0
0
0
0
0
0
0
0
0
0
0
0
0
0
0
0
0
0
0
0
0
0
0
0
0
0
0
0
0
0
0
0
0
0
0
0
0
0
0
0
0
0
0
0
0
0
0
0
0
0
0
0
0
0
0
0
0
0
0
0
0
0
0
0
0
0
0
0
0
0
0
0
0
0
0
0
0
0
0
0
0
0
0
0
0
0
0
0
0
0
0
0
0
0
0
0
0
0
0
0
0
0
0
0
0
0
0
0
0
0
0
0
0
0
0
0
0
0
0
0
0
0
0
0
0
0
0
0
0
0
0
0
0
0
0
0
0
0
0
0
0
0
0
0
0
0
0
0
0
0
0
0
0
0
0
0
0
0
0
0
0
0
0
0
0
0
0
0
0
0
0
0
0
0
0
0
0
0
0
0
0
0
0
0
0
0
0
0
0
0
0
0
0
0
0
0
0
0
0
0
0
0
0
0
0
0
0
0
0
0
0
0
0
0
0
0
0
0
0
0
0
0
0
0
0
0
0
0
0
0
0
0
0
0
0
0
0
0
0
0
0
0
0
0
0
0
0
0
0
0
0
0
0
0
0
0
0
0
0
0
0
0
0
0
0
0
0
0
0
0
0
0
0
0
0
0
0
0
0
0
0
0
0
0
0
0
0
0
0
0
0
0
0
0
0
0
0
0
0
0
0
0
0
0
0
0
0
0
0
0
0
0
0
0
0
0
0
0
0
0
0
0
0
0
0
0
0
0
0
0
0
0
0
0
0
0
0
0
0
0
0
0
0
0
0
0
0
0
0
0
0
0
0
0
0
0
0
0
0
0
0
0
0
0
0
0
0
0
0
0
0
0
0
0
0
0
0
0
0
0
0
0
0
0
0
0
0
0
0
0
0
0
0
0
0
0
0
0
0
0
0
0
0
0
0
0
0
0
0
0
0
0
0
0
0
0
0
0
0
0
0
0
0
0
0
0
0
0
0
0
0
0
0
0
0
0
0
0
0
0
0
0
0
0
0
0
0
0
0
0
0
0
0
0
0
0
0
0
0
0
0
0
0
0
0
0
0
0
0
0
0
0
0
0
0
0
0
0
0
0
0
0
0
0
0
0
0
0
0
0
0
0
0
0
0
0
0
0
0
0
0
0
0
0
0
0
0
0
0
0
0
0
0
0
0
0
0
0
0
0
0
0
0
0
0
0
0
0
0
0
0
0
0
0
0
0
0
0
0
0
0
0
0
0
0
0
0
0
0
0
0
0
0
0
0
0
0
0
0
0
0
0
0
0
0
0
0
0
0
0
0
0
0
0
0
0
0
0
0
0
0
0
0
0
0
0
0
0
0
0
0
0
0
0
0
0
0
0
0
0
0
0
0
0
0
0
0
0
0
0
0
0
0
0
0
0
0
0
0
0
0
0
0
0
0
0
0
0
0
0
0
0
0
0
0
0
0
0
0
0
0
0
0
0
0
0
0
0
0
0
0
0
0
0
0
0
0
0
0
0
0
0
0
0
0
0
0
0
0
0
0
0
0
0
0
0
0
0
0
0
0
0
0
0
0
)


6092
(
0
0
0
0
0
0
0
0
0
0
0
0
0
0
0
0
0
0
0
0
0
0
0
0
0
0
0
0
0
0
0
0
0
0
0
0
0
0
0
0
0
0
0
0
0
0
0
0
0
0
0
0
0
0
0
0
0
0
0
0
0
0
0
0
0
0
0
0
0
0
0
0
0
0
0
0
0
0
0
0
0
0
-147.72476
0
0
-104.41461
0
0
0
0
-155.91592
0
-120.8001
0
0
0
0
0
-99.746666
0
0
0
0
0
0
0
0
0
0
0
0
0
0
0
0
0
0
0
0
0
0
0
0
0
0
0
0
0
0
0
0
0
0
0
0
0
0
0
0
0
0
0
0
0
0
0
0
0
0
0
0
0
0
0
0
0
0
0
0
0
0
0
0
0
0
0
0
0
0
0
0
0
0
0
0
0
0
0
0
0
0
0
0
0
0
0
0
0
0
0
0
0
0
0
0
0
0
0
0
0
0
0
0
0
0
0
0
0
0
0
0
0
0
0
0
0
0
0
0
0
-111.77757
0
0
0
0
0
0
0
0
0
0
0
0
0
0
0
0
0
0
0
0
0
0
0
0
0
0
0
0
0
0
0
0
0
-141.87315
0
0
0
0
0
0
-140.14817
0
0
0
0
0
0
0
0
0
0
0
0
0
0
0
0
0
0
0
0
0
0
0
0
0
0
0
0
0
0
0
0
0
0
0
0
0
0
0
0
0
0
0
0
0
0
0
0
0
0
0
0
0
0
0
0
0
0
0
0
0
0
0
0
0
0
0
0
0
0
0
0
0
0
0
0
0
0
0
0
0
0
0
0
0
-97.154614
0
-57.157478
0
0
0
0
-106.58778
-134.63957
-153.53407
-74.214516
0
0
0
-131.22108
0
0
-74.780865
0
0
0
-146.53124
-151.53957
-156.92772
-98.12603
0
0
0
0
0
0
0
0
0
0
0
0
0
0
0
0
0
0
0
0
0
0
0
0
0
0
0
0
0
0
0
0
0
0
0
0
0
0
0
0
0
0
0
0
0
0
0
0
0
0
0
0
0
0
0
0
0
0
0
0
0
0
0
0
0
0
0
0
0
0
0
0
0
0
0
0
0
0
0
0
0
0
0
0
0
0
0
0
0
0
0
0
0
0
0
0
0
0
0
0
0
0
0
0
0
0
0
0
0
0
0
0
0
0
0
0
0
0
0
0
0
0
0
0
0
0
0
0
0
0
0
0
0
0
0
-92.243623
0
-66.404775
0
-72.277139
-62.641326
0
-150.97012
0
0
-90.650621
-153.61562
0
-90.88923
0
0
0
0
0
0
0
0
0
0
0
0
0
0
0
0
0
0
0
0
0
0
0
0
0
0
0
0
0
0
0
0
0
0
0
0
-61.001161
-45.339774
0
0
0
0
0
-61.844416
-64.254173
0
0
0
0
0
0
0
0
0
0
0
0
0
0
0
0
0
0
0
0
0
0
0
0
0
0
0
0
0
0
0
0
0
0
0
0
0
0
0
0
0
0
0
0
0
0
0
0
0
0
0
0
0
0
0
0
0
0
0
0
0
0
0
0
0
0
0
0
0
0
0
0
0
0
0
0
0
0
0
0
0
0
0
0
0
0
0
0
0
0
0
0
0
0
0
0
0
0
0
0
0
0
0
0
0
0
0
0
0
0
0
0
0
-97.153793
0
0
0
0
0
0
0
-133.36769
0
-90.535131
0
0
0
0
0
-141.45292
-107.31283
0
0
0
0
0
0
-85.914334
0
0
0
0
0
0
0
0
0
0
0
0
0
0
0
0
0
0
0
0
0
0
0
0
0
0
0
0
0
0
0
0
0
0
0
0
0
0
0
0
0
0
0
0
0
0
0
0
0
0
0
0
0
0
0
0
0
0
0
0
0
0
0
0
0
0
0
0
0
0
0
0
0
0
0
-104.39866
0
-151.87765
0
-103.25965
-83.283977
-148.36886
-123.56518
-83.698256
-148.94513
-82.154692
-88.789249
0
-48.234751
0
-66.181181
0
0
-96.452759
0
-94.004998
-113.61256
-91.954754
-80.452535
-116.69689
-99.744856
0
-102.37479
-61.929487
-76.835709
-142.30437
0
0
0
0
0
0
0
0
0
0
0
-145.30015
0
-123.38614
-155.2257
-145.21115
0
-102.02643
0
-144.70027
-105.06314
0
-162.77006
-120.72249
-157.12499
-146.96515
-180.07571
-152.85716
-113.74248
-98.665577
0
-89.693645
-119.21988
-104.37229
-98.176983
-121.57133
-161.1882
-154.97741
-125.66657
-130.8763
-173.81266
-137.2879
-148.89498
0
0
0
-126.56807
0
-91.63605
0
0
0
0
0
0
0
0
0
0
0
0
0
0
0
0
0
0
0
0
0
0
0
0
0
0
0
0
0
0
0
0
-56.802151
0
0
0
0
0
0
0
0
0
0
0
0
0
0
0
0
0
0
0
0
0
0
0
0
0
0
0
0
0
0
0
0
0
0
0
0
0
0
0
0
0
0
0
0
0
0
0
0
0
0
0
0
0
0
0
0
0
0
0
0
0
0
0
0
0
0
0
0
0
0
0
0
0
0
0
0
0
0
0
0
0
0
0
0
0
0
0
0
0
0
0
0
0
0
0
0
0
0
0
0
0
0
0
0
0
0
0
0
0
0
0
0
0
0
0
0
0
0
0
0
0
0
0
0
0
0
0
0
0
0
0
0
0
0
0
0
0
0
0
0
0
0
0
0
0
0
0
0
0
0
0
0
0
0
0
0
0
0
0
0
0
0
0
0
0
0
0
0
0
0
0
0
0
0
0
0
0
0
0
0
0
0
0
0
0
0
0
0
0
0
0
0
0
0
0
0
0
0
0
0
0
0
0
0
0
0
0
0
0
0
0
0
0
0
0
0
0
0
0
0
0
0
0
0
0
0
0
0
0
0
0
0
0
0
0
0
0
0
0
0
0
0
0
0
0
0
0
0
0
0
0
0
0
0
0
0
0
0
0
0
0
0
0
0
0
0
0
0
0
0
0
0
0
0
0
0
0
0
0
0
0
0
0
0
0
0
0
0
0
0
0
0
0
0
0
0
0
0
0
0
0
0
0
0
0
0
0
0
0
0
0
0
0
0
0
0
0
0
0
0
0
0
0
0
0
0
0
0
0
0
0
0
0
0
0
0
0
0
0
0
0
0
0
0
0
0
0
0
0
0
0
0
0
0
0
0
0
0
0
0
0
0
0
0
0
0
0
0
0
0
0
0
0
0
0
0
0
0
0
0
0
0
0
0
0
0
0
0
0
0
0
0
0
0
0
0
0
0
0
0
0
0
0
0
0
0
0
0
0
0
0
0
-122.64269
0
0
0
0
0
0
-120.81002
0
0
0
0
0
0
0
0
0
0
0
0
0
0
0
0
0
0
0
0
0
0
0
0
0
0
0
0
0
0
0
0
0
0
0
0
0
-98.45901
0
0
0
0
-73.279103
0
0
0
0
0
0
0
0
0
0
0
0
0
0
0
0
0
0
0
-139.6197
-94.464222
0
-106.78473
0
0
0
0
0
0
0
0
0
0
0
0
0
0
0
0
0
0
0
0
0
0
0
0
0
0
0
0
0
0
0
0
0
0
0
0
0
0
0
0
0
0
0
0
0
0
0
0
0
0
0
0
0
0
0
0
-78.454894
-131.15167
-66.017351
0
0
0
0
0
-112.75026
0
0
-52.523059
0
0
0
0
0
0
0
0
0
0
0
0
0
0
0
0
0
0
0
0
0
0
0
0
0
0
-54.957809
0
0
0
-95.370468
-138.09933
-91.611217
0
0
0
0
0
-129.50504
0
-78.566056
0
0
0
0
0
0
0
0
0
0
0
0
0
0
0
0
0
0
0
0
0
0
0
0
0
0
0
0
0
0
0
0
0
0
0
0
0
0
0
0
0
0
0
0
0
0
0
0
0
0
0
0
0
0
0
0
0
0
0
0
0
0
0
0
0
0
0
0
0
0
0
0
0
0
0
0
0
0
0
0
0
0
0
0
0
0
0
0
0
0
0
0
0
0
0
0
0
0
0
0
0
0
0
0
0
0
0
0
0
0
0
0
0
0
0
0
0
0
0
0
0
0
0
0
0
0
-96.480128
-99.195167
-90.155334
-86.213242
-98.097532
0
0
0
0
0
0
0
0
0
0
-79.308163
0
-64.454464
0
-75.602223
0
0
0
0
0
0
0
-112.3351
0
-114.23331
-127.40849
-136.00741
-132.78397
-128.15824
0
0
-78.39809
-99.574245
0
-66.275899
-78.182558
0
0
-95.887155
-113.16356
0
-118.28897
-97.137869
-118.37451
-108.1423
-119.84005
-108.0818
-119.80052
-107.0042
-121.5647
-129.90189
-114.04556
-151.66317
-120.16387
-100.89056
-140.42396
-135.12833
-134.32897
-145.84738
-136.91134
-153.77365
-135.44737
-139.51135
-141.97332
-109.11748
-63.650394
-95.694131
-95.400172
-82.179568
-91.082292
-116.07986
0
0
0
0
0
0
-61.782851
0
0
0
0
0
0
0
-56.781588
0
0
-62.219969
-85.862525
-79.944265
-64.987714
-84.696018
-109.49562
-110.37314
-126.52483
-110.21707
-104.33052
-86.289281
0
0
0
0
-54.255372
0
0
0
0
-74.167029
0
-72.078401
-55.298853
0
-61.648241
-59.955015
-101.13084
-55.561359
-80.803731
0
-80.762818
-112.32981
0
-108.66057
-136.34499
-136.78029
-131.15411
-141.25199
0
-51.913365
-71.545888
-99.447103
-56.929964
-78.590324
-78.772727
0
-71.054467
-89.98746
-116.84164
-107.21057
-127.81348
-97.626391
-140.6485
-128.11578
-164.39141
-137.04027
-149.95287
-118.82028
-155.69453
-150.03302
-128.87245
-160.75533
-160.29862
-131.0312
-142.53232
-164.81354
-157.2157
-149.76854
-161.74981
-159.13441
-147.81379
-157.73651
-163.81371
-127.44073
-81.970348
-118.72694
-127.58171
-108.71496
-101.10817
-142.85725
0
0
0
0
0
0
0
0
0
0
0
0
0
0
0
0
0
0
0
0
0
0
0
0
0
0
0
0
0
0
0
0
0
0
0
0
0
0
0
0
0
0
0
0
0
0
0
0
0
0
0
0
0
0
0
0
0
0
0
0
0
0
0
0
0
0
0
0
0
0
0
0
0
0
0
0
0
0
0
0
0
0
0
0
0
0
0
0
0
0
0
0
0
0
0
0
0
0
0
0
0
0
0
0
0
0
0
0
0
0
0
0
0
0
0
0
0
0
0
0
-69.564654
0
0
-43.636503
0
-46.521468
-67.096089
0
0
0
0
0
0
0
0
0
0
0
0
0
0
0
0
0
0
0
0
0
0
0
0
0
0
0
0
0
0
0
0
0
0
0
0
0
0
0
0
0
0
0
0
0
0
0
0
0
0
0
0
0
0
0
0
0
0
0
0
0
0
0
0
0
0
0
0
0
0
-64.226092
0
-66.478976
0
0
0
0
0
0
0
0
0
-82.806899
-152.75355
0
0
0
0
0
0
0
0
0
0
0
0
0
0
0
0
0
0
0
0
0
0