/*--------------------------------*- C++ -*----------------------------------*\
  =========                 |
  \\      /  F ield         | OpenFOAM: The Open Source CFD Toolbox
   \\    /   O peration     | Website:  https://openfoam.org
    \\  /    A nd           | Version:  8
     \\/     M anipulation  |
\*---------------------------------------------------------------------------*/
/*   Windows 32 and 64 bit porting by blueCAPE: http://www.bluecape.com.pt   *\
|  Based on Windows porting (2.0.x v4) by Symscape: http://www.symscape.com   |
\*---------------------------------------------------------------------------*/
FoamFile
{
    version     2.0;
    format      ascii;
    class       polyBoundaryMesh;
    location    "constant/air/polyMesh";
    object      boundary;
}
// * * * * * * * * * * * * * * * * * * * * * * * * * * * * * * * * * * * * * //

11
(
    left
    {
        type            patch;
        nFaces          0;
        startFace       14894;
    }
    right
    {
        type            patch;
        nFaces          0;
        startFace       14894;
    }
    back
    {
        type            patch;
        nFaces          0;
        startFace       14894;
    }
    front
    {
        type            patch;
        nFaces          0;
        startFace       14894;
    }
    bottom
    {
        type            wall;
        inGroups        List<word> 1(wall);
        nFaces          136;
        startFace       14894;
    }
    top
    {
        type            patch;
        nFaces          0;
        startFace       15030;
    }
    Building
    {
        type            mappedWall;
        inGroups        List<word> 
2
(
wall
mappedPatch
)
;
        nFaces          864;
        startFace       15030;
        sampleMode      nearestPatchFace;
        sampleRegion    Building;
        samplePatch     buildings_to_air;
    }
    procBoundary11to6
    {
        type            processor;
        inGroups        List<word> 1(processor);
        nFaces          12;
        startFace       15894;
        matchTolerance  0.0001;
        myProcNo        11;
        neighbProcNo    6;
    }
    procBoundary11to8
    {
        type            processor;
        inGroups        List<word> 1(processor);
        nFaces          363;
        startFace       15906;
        matchTolerance  0.0001;
        myProcNo        11;
        neighbProcNo    8;
    }
    procBoundary11to9
    {
        type            processor;
        inGroups        List<word> 1(processor);
        nFaces          184;
        startFace       16269;
        matchTolerance  0.0001;
        myProcNo        11;
        neighbProcNo    9;
    }
    procBoundary11to10
    {
        type            processor;
        inGroups        List<word> 1(processor);
        nFaces          338;
        startFace       16453;
        matchTolerance  0.0001;
        myProcNo        11;
        neighbProcNo    10;
    }
)

// ************************************************************************* //
