/*--------------------------------*- C++ -*----------------------------------*\
  =========                 |
  \\      /  F ield         | OpenFOAM: The Open Source CFD Toolbox
   \\    /   O peration     | Website:  https://openfoam.org
    \\  /    A nd           | Version:  8
     \\/     M anipulation  |
\*---------------------------------------------------------------------------*/
/*   Windows 32 and 64 bit porting by blueCAPE: http://www.bluecape.com.pt   *\
|  Based on Windows porting (2.0.x v4) by Symscape: http://www.symscape.com   |
\*---------------------------------------------------------------------------*/
FoamFile
{
    version     2.0;
    format      ascii;
    class       scalarListList;
    location    "constant/vegetation";
    object      F;
}
// * * * * * * * * * * * * * * * * * * * * * * * * * * * * * * * * * * * * * //


357
(

1114
(
0.00011498089
0.00015761639
0.00015071841
0.00012145365
0.00016632012
0.00040942808
0.0003784187
0.00011111964
0.00015911769
0.00011936768
9.9133928e-05
0.00010923199
0.0001067664
0.00014137934
0.00017924994
0.00012400415
0.00013511073
0.00013917129
0.00010364833
0.0001202431
0.00012923885
0.00011215566
0.0001739475
0.00018734693
0.00018157147
0.0001052319
0.00014517053
0.00016506651
0.00013078487
0.00016812308
0.00018711155
0.00018075889
0.00019480354
0.00020553411
9.477283e-05
0.00010175543
0.00016812145
0.00019323083
0.00012600129
0.00010849136
0.0001140404
0.00011832955
0.0001960479
0.00020536981
0.00015735545
0.00023058719
0.0098031134
0.025817843
0.00010749199
0.00011753482
0.00014259054
0.00012189354
2.3629067e-07
9.8127159e-05
2.8812088e-07
0.00012794519
1.3499399e-06
0.00013790458
5.4463022e-05
1.378354e-05
6.120978e-05
1.7827649e-05
4.0380156e-05
2.0509702e-05
2.1944272e-07
3.733579e-07
3.72052e-07
8.8052345e-05
7.1422358e-05
1.6224356e-05
3.1671538e-05
2.5098715e-05
7.3402931e-05
0.00012589222
0.00019217138
7.5251706e-05
7.8710013e-05
9.1216776e-05
0.00021371541
0.00020301194
0.00021182158
0.00019609607
0.00018901518
0.00047591003
0.0005087028
0.00039138489
0.00027416213
0.00040538853
0.00026521481
0.00010819841
0.00016700764
0.00047896563
0.00050847405
0.00018682808
0.00017449772
0.00018797815
0.00017703484
0.00017075102
0.00015468795
0.00015708366
0.00017645391
0.00022463775
0.00012366286
0.00021320223
0.00024640819
0.00020980823
0.00023622832
0.00024351616
0.00020796381
0.00020256094
0.00022355185
0.00021467988
0.00047748339
0.00050950252
0.0004699982
0.00050525536
6.8444979e-05
6.460061e-05
8.467964e-05
0.00014175169
0.00013378767
0.00015256863
0.00018393668
0.00017965643
0.00025353706
0.00018700034
0.00018349997
0.00024150302
0.0002748041
0.00027114826
0.0002562266
0.00026708509
0.00027537861
0.0002427362
0.00018550378
0.00020793533
0.00024653685
0.00024333423
0.00023841069
0.00023160124
0.00018576399
0.00021513992
0.00026597923
0.00027289002
3.6234958e-05
3.6998338e-05
3.9395692e-05
3.8905582e-05
4.0475758e-05
1.8818873e-07
4.0434383e-05
1.2520044e-07
2.0927637e-07
3.5421379e-05
2.046914e-07
2.2053222e-07
2.297914e-07
2.1373307e-07
3.7701342e-05
2.1769085e-07
2.2917968e-07
3.8337718e-05
2.2139626e-07
9.7134753e-06
9.4192777e-06
9.9819789e-06
1.0011203e-05
9.9407997e-06
0.00017343022
0.00020794419
2.3336472e-05
2.2880723e-05
0.00021793417
0.00011591171
0.00023972229
0.00011081977
0.00025200499
0.00016642774
1.9653439e-05
2.3469385e-05
0.0076450585
0.021554593
0.01738743
0.046063313
0.03758351
0.030271632
6.0086377e-05
0.0021513913
5.5667942e-06
0.0015014937
0.00033820467
0.00055461011
0.00060293972
0.00019082736
0.0005251787
4.5867363e-05
0.00017365439
0.00024229612
0.00019971247
0.00035399019
0.00031272386
1.886459e-06
0.0026298574
1.9964051e-06
0.0024137263
0.00039197975
0.00042282942
1.6607388e-06
0.0018666639
1.2780915e-06
0.002150036
0.00024246045
0.00027575479
3.4888763e-06
0.00081766405
6.1315749e-06
0.0010598029
0.00021490204
0.00019902221
4.9675562e-06
0.0015773029
3.7886567e-06
0.0013061987
0.0004601708
0.00045345835
6.5332904e-06
0.0027706235
1.8585111e-06
0.0027983701
0.0004572838
0.00044308316
9.4717822e-06
0.0025149724
5.1389651e-06
0.0027132201
0.00047894637
0.00045667247
0.0037789165
0.0039354632
0.0031555765
0.0031655827
0.0026687882
0.0032969849
0.0017364378
0.0023600484
0.0023238693
0.0010953241
0.00093938013
0.00096528352
0.0010568939
0.00086017427
0.00067101881
0.00085516326
0.00076553934
0.00074555099
0.0017825517
0.0012489643
0.0028420868
0.0024021793
0.00086869374
0.00079699814
0.00062979799
0.00071365294
0.0009095962
0.00089285623
0.00055115443
0.00048021855
0.00036336176
0.00041769128
0.0010424724
0.0011380474
0.0011570981
0.0011690143
0.00092955628
0.00080792605
0.00091209399
0.0010504008
0.0018531912
0.0014324841
0.00044619616
0.00047818423
0.00044148122
0.00048594723
0.00043254067
0.00041437382
0.00039435918
0.00046853588
0.00032093005
0.00032926942
0.00040010929
0.00045562561
0.00042492514
0.0004245173
0.00037173798
0.00035565272
0.00039060415
0.00034183362
0.0002565698
0.00023364603
0.00026045081
0.00023181419
0.00028341939
0.00032174101
0.00028983812
0.00031204407
0.00059655973
0.00067212303
0.00079622755
0.0007410953
0.00052168224
0.00045360854
0.00035455202
0.00039707766
0.00097380624
0.0010108422
0.0010907693
0.00092191037
0.00081289544
0.00083624694
0.00083125414
0.0008445332
0.00078732192
0.00075404652
0.0005835106
0.00055602036
0.00064482825
0.00050554467
0.00037903148
0.00047926649
0.000437573
0.00041365719
0.00018898561
0.00020943305
0.00020928134
0.0001879282
0.00017092391
0.0016659627
0.0022065525
0.00079335011
0.00073347694
0.00063563293
0.00072284422
0.00091099041
0.00056742998
0.00057800017
0.00064381936
0.0006938179
0.00048435702
0.00055909247
0.00055528487
0.00071706216
0.00084264376
0.00094355012
0.0011559529
0.0010337678
0.0011027454
0.0010333656
0.0012508219
0.0013209644
0.0010769702
0.0011766315
0.0011236346
0.0013634911
0.0011339905
0.0011392999
0.0012252776
0.0013458191
0.00051382956
0.00044224217
0.00049515034
0.00057982332
0.00059800269
0.00069608006
0.00078831782
0.00067237713
0.00023001104
0.00020428117
0.00026068261
0.00054062114
0.00049932853
0.00060358953
0.00065879592
0.00040962644
0.00045429642
0.00054529263
0.0004851202
0.00026064758
0.0002928376
0.0003396593
0.00029722121
0.00036733213
0.00032829213
0.0003819361
0.00043294924
0.64100112
0.02032326
0.0056548043
0.0080760485
1.6018731e-07
1.2836827e-06
8.5161438e-07
3.381433e-06
1.3324371e-06
1.6579342e-06
5.3961189e-06
4.7465069e-06
9.2418617e-06
8.9227768e-06
8.6438434e-06
9.530025e-06
5.9972912e-06
6.5532342e-06
9.9653369e-06
9.1573822e-06
9.3498716e-06
9.7703068e-06
2.4763409e-06
3.2812899e-06
4.0425588e-06
8.9039274e-06
7.9475051e-06
8.3190039e-06
8.5150543e-06
1.0405332e-05
1.1628015e-05
1.0716313e-05
7.5833266e-06
7.5290638e-06
7.0641114e-06
8.0748817e-06
1.0120035e-05
9.595819e-06
9.4996014e-06
1.0247591e-05
1.0196476e-05
9.5218834e-06
1.0330363e-05
1.0037232e-05
9.6100616e-06
1.3710869e-05
1.3363179e-05
1.2869668e-05
1.4273566e-05
1.4612105e-05
1.5243063e-05
1.1363523e-05
1.2418198e-05
1.1530607e-05
1.2258503e-05
1.1185581e-05
1.1878171e-05
1.0974212e-05
1.2082808e-05
1.1309426e-05
1.2506992e-05
1.208664e-05
1.1647567e-05
1.1898425e-05
1.446181e-05
1.359977e-05
1.2802055e-05
1.1378203e-05
1.2076098e-05
1.3439788e-05
1.4467801e-05
1.3366615e-05
1.6019354e-05
1.3065855e-05
1.3183533e-05
1.3991925e-05
1.5386446e-05
0.0076232733
2.5875246e-05
2.060128e-05
1.9445972e-05
1.3962622e-05
1.5365731e-08
5.555851e-06
1.434789e-08
4.745502e-06
1.4713547e-06
1.3780649e-06
6.3828948e-09
8.239279e-06
7.864461e-09
7.5294069e-06
1.5827407e-06
1.7305593e-06
2.009621e-08
6.1929539e-06
2.7480162e-08
6.8415042e-06
3.3349058e-05
4.4857286e-06
4.9800277e-05
4.3067644e-07
4.4625935e-05
3.099851e-06
2.8013376e-06
1.6031841e-08
1.8213195e-05
1.7791512e-08
1.6356796e-05
3.4383888e-06
3.8233497e-06
1.4466297e-08
1.3294365e-05
1.3078173e-08
1.4727431e-05
2.3033326e-06
2.5373835e-06
9.7546485e-09
9.0299766e-06
8.8389564e-09
9.9146661e-06
2.0953386e-06
1.9028478e-06
1.0742804e-08
1.2028982e-05
1.1843247e-08
1.0908586e-05
5.3225851e-06
5.9630639e-06
2.2003524e-08
2.0334813e-05
1.9773514e-08
2.276975e-05
4.7652428e-06
4.26272e-06
2.4440233e-08
2.8806592e-05
2.6571994e-08
2.5571493e-05
7.7696184e-06
6.7335902e-06
1.802276e-07
4.6237031e-05
1.7315095e-07
4.1275176e-05
9.105611e-06
1.0956152e-05
1.0712166e-07
3.2552791e-05
2.5899195e-08
3.6660955e-05
1.2837323e-06
1.301491e-06
3.2472247e-05
4.1091298e-05
5.4827812e-05
3.9819375e-05
7.0029309e-05
7.9016833e-05
5.5053979e-05
0.00010361548
6.5090678e-05
0.00012050358
0.00012705387
0.00010756989
5.1129834e-05
0.00010887254
8.9440115e-05
6.7036785e-05
5.0705532e-06
5.794034e-06
6.3992492e-05
6.1880834e-05
6.995291e-05
5.6155662e-05
4.7617436e-05
7.0407595e-06
6.44607e-06
5.2225596e-05
4.8256898e-05
5.8329783e-05
7.6889585e-05
6.5954556e-05
6.8732797e-05
7.4145473e-05
7.5537914e-05
6.7564938e-05
6.9275369e-05
7.3334862e-05
0.00010482449
8.8817882e-05
7.6222626e-05
0.00014002775
0.00016185706
0.00017569079
2.3325211e-06
5.7237951e-06
7.170383e-06
6.245183e-06
6.5601797e-06
4.2528609e-06
3.3282805e-06
8.0139509e-05
8.6685011e-05
5.584523e-05
3.8041625e-05
4.5253989e-05
4.8298398e-05
1.1311081e-05
7.9698796e-06
7.9858125e-06
7.3008625e-06
8.7144207e-06
9.4118037e-05
9.1264792e-05
7.8407705e-05
7.1214448e-05
7.0425546e-05
7.8872777e-05
7.7287553e-05
7.1233627e-05
7.0544255e-05
7.844725e-05
9.0054963e-05
8.698614e-05
7.9952985e-05
8.3569839e-05
5.7090073e-05
5.9754296e-05
5.248605e-05
4.9928445e-05
0.00012202914
4.7098322e-05
4.3914907e-05
4.4757536e-05
4.2423372e-05
6.252068e-05
6.1496548e-05
5.423087e-05
5.5363407e-05
4.887636e-05
5.0545679e-05
4.4232899e-05
5.0263722e-05
5.3315523e-05
4.8102278e-05
4.1698697e-05
4.6409258e-05
4.8910788e-05
4.6985501e-05
0.00014006051
0.00011868686
6.1452288e-05
6.2456486e-05
5.5378049e-05
5.9903087e-05
2.6085539e-05
3.2719532e-05
6.1713688e-05
5.9081232e-05
9.3077043e-05
0.00010723591
7.4229252e-05
0.00010160066
6.4423421e-05
7.9242813e-05
7.9788971e-06
6.9084312e-06
7.4620118e-06
9.5451458e-06
8.9732332e-06
9.7979467e-06
1.1827377e-05
1.0737778e-05
1.2951258e-05
1.2636453e-05
1.5114783e-05
1.5374684e-05
3.6764765e-05
3.5625043e-05
3.2076876e-05
4.1010928e-05
3.180484e-05
4.1004195e-05
2.7242802e-05
3.5388823e-05
6.3436327e-05
6.3412497e-05
6.2739024e-05
5.664661e-05
5.0065923e-05
4.5719943e-05
5.099069e-05
5.0053293e-05
3.5128362e-05
3.4510445e-05
3.8816351e-05
3.8229134e-05
4.124228e-05
4.0648007e-05
4.011702e-05
4.1345618e-05
4.7555815e-06
3.9064192e-06
5.1646423e-06
3.638444e-06
2.754146e-06
2.9878268e-06
3.5615522e-06
3.2556642e-06
7.1390301e-05
6.0338281e-05
4.7338183e-05
1.0473393e-05
1.0924933e-05
8.5765998e-06
9.9546335e-06
9.3682869e-06
9.1232325e-06
5.7135893e-06
6.3198813e-06
7.7876538e-06
7.0068297e-06
5.1772249e-06
4.701368e-06
3.9014116e-06
4.2782389e-06
9.5465045e-05
9.5523285e-05
9.2618983e-05
9.4506159e-05
1.2186642e-05
1.0847146e-05
8.6779355e-06
9.6888733e-06
1.3746798e-05
1.5633165e-05
2.1279208e-05
1.801277e-05
1.6290106e-05
1.5576945e-05
1.8923136e-05
2.1329045e-05
1.9931241e-05
2.0209327e-05
1.7726329e-05
1.7422862e-05
1.6613145e-05
1.8634439e-05
2.3079373e-05
2.2836997e-05
2.1593076e-05
2.4462647e-05
2.4678855e-05
2.8107655e-05
2.6217306e-05
2.6396153e-05
6.3874887e-05
6.9286223e-05
7.0508368e-05
5.3120025e-05
5.5482492e-05
5.8920571e-05
5.0331359e-05
7.6288101e-05
7.2778355e-05
6.8037189e-05
6.5516336e-05
7.0798113e-05
6.3235101e-05
6.515172e-05
5.8354105e-05
6.2226857e-05
6.0827323e-05
3.9800544e-05
3.9984829e-05
4.302742e-05
3.7102925e-05
4.2828404e-05
5.0705146e-05
4.6352438e-05
4.6534942e-05
3.2350872e-05
3.7249629e-05
3.4636297e-05
3.4711942e-05
3.022387e-05
3.0146578e-05
2.824245e-05
3.2343338e-05
0.00015663702
2.564331e-06
2.4393178e-06
1.5387442e-05
1.7447201e-05
1.6381695e-05
1.858981e-05
1.981532e-05
2.4045784e-05
2.5661221e-05
2.2536392e-05
2.1129228e-05
4.0724353e-05
4.3735504e-05
3.8048662e-05
3.5603352e-05
2.9241721e-05
2.7391042e-05
3.1220297e-05
3.3335856e-05
7.1105232e-05
9.121212e-05
8.495319e-05
7.6995502e-05
4.2815415e-06
5.7146739e-06
4.7015601e-06
7.060452e-06
5.6699354e-06
5.1382598e-06
6.8148251e-06
8.3770244e-06
1.1169326e-05
1.0524244e-05
1.2657988e-05
1.3453302e-05
1.1736167e-05
1.2226247e-05
1.4668361e-05
1.4090532e-05
8.346368e-06
7.5839189e-06
1.1277198e-05
1.2451348e-05
6.2861789e-06
6.9033876e-06
1.0308174e-05
9.2951946e-06
9.2046913e-06
1.017374e-05
1.5129002e-05
1.3666643e-05
1.249312e-05
1.1263924e-05
1.6653151e-05
1.8317295e-05
2.1391316e-05
2.4056708e-05
3.1485318e-05
3.123357e-05
1.9013562e-05
1.7100783e-05
2.4694234e-05
2.4641463e-05
1.3894249e-05
1.5479306e-05
2.243217e-05
2.0139013e-05
1.6654176e-05
1.5461477e-05
1.5154861e-05
1.8042223e-05
2.387146e-05
2.5630392e-05
2.8480326e-05
2.6389362e-05
2.9593091e-05
2.7533619e-05
3.0591143e-05
3.3045219e-05
2.2246635e-05
2.0744636e-05
2.2813218e-05
2.4600113e-05
1.8030336e-05
1.9350812e-05
2.1284708e-05
1.9615929e-05
3.9582684e-05
3.6833605e-05
4.1313605e-05
4.4370736e-05
3.1822363e-05
3.4234061e-05
3.8397786e-05
3.552942e-05
4.2156156e-05
4.522193e-05
4.5808572e-05
4.7034019e-05
5.9835139e-05
5.7725592e-05
5.1402271e-05
5.833801e-05
5.3567218e-05
5.5855801e-05
4.9166262e-05
5.6413718e-05
0.00014743629
0.031520803
0.031317731
9.0598038e-06
8.858653e-06
9.2494215e-06
9.4230847e-06
0.0032132224
0.0065765965
0.0026036167
0.0055668544
0.00067034307
0.0051879647
0.0035391482
1.8541014e-06
1.4441182e-06
5.0245307e-06
2.9017712e-07
2.5358957e-06
2.054617e-06
5.0160352e-06
3.7776312e-06
3.5661279e-06
7.3305251e-06
6.2067434e-06
5.0967013e-06
6.5412848e-06
0.00044219735
0.013326162
1.0477437e-05
2.8791135e-05
2.1929222e-05
2.1013094e-05
2.9794249e-05
8.5103208e-06
2.5784698e-05
2.4798072e-05
3.272697e-05
3.366014e-05
9.9853781e-06
7.8711825e-06
6.9090745e-06
3.1126305e-08
5.1350498e-08
9.5126497e-06
1.6653608e-07
2.7786815e-05
1.6086546e-07
2.2866211e-05
1.3245159e-07
1.7240255e-07
3.0787921e-05
1.7800932e-07
2.0119879e-05
9.0481297e-06
3.9303425e-08
2.6783137e-05
1.4934978e-07
1.5499148e-07
2.3824175e-05
1.4357328e-07
1.380663e-07
3.1766408e-05
1.8914205e-07
1.8372805e-07
3.4559283e-05
1.9458924e-07
1.9966228e-07
1.9792424e-06
1.9773278e-06
2.0675459e-06
7.2120708e-06
6.9630053e-06
6.4650126e-06
6.7127665e-06
5.7376343e-06
6.2189005e-06
5.9769789e-06
7.4619988e-06
7.7082493e-06
8.1897247e-06
7.9518551e-06
8.4215782e-06
8.6446406e-06
0.0001252649
0.00015723814
0.00013379471
1.7007732e-05
1.5227173e-05
1.4674918e-05
1.7568008e-05
1.9300946e-05
2.1339234e-05
1.9820287e-05
2.1763846e-05
7.2015912e-05
0.00011668796
8.3559014e-05
7.7747038e-05
0.00014210317
8.9349731e-05
9.4997461e-05
0.00020475316
0.00014863705
0.00018550295
0.00018017383
0.00019745709
0.00020903861
0.00021753664
0.00014998507
0.00010531099
0.00010036593
4.4509687e-06
0.00021377643
0.00015930406
0.00016988761
3.7262763e-06
0.0001899115
0.00021997974
5.5371729e-06
1.6396592e-05
1.5835389e-05
1.4080781e-05
1.8171962e-05
1.8717797e-05
2.0846278e-05
2.0366996e-05
2.2189271e-05
0.00022181595
0.0006316666
0.0026654247
0.015556899
0.00019259814
0.00024770045
0.00025333732
0.00023549335
0.00030238347
5.5191665e-05
6.0408683e-05
5.6890185e-05
7.741851e-05
6.8105725e-05
7.0467496e-05
6.6714198e-05
8.8219559e-05
0.0002812899
0.0002115513
0.00022855439
5.7657274e-05
0.0002746939
0.00029923194
7.8220649e-05
0.00027397005
0.00024172148
0.00022998258
0.00022829849
6.2838519e-05
0.00023646847
6.8799151e-05
0.00024748345
7.0274375e-05
7.5194967e-05
7.9131647e-05
7.4869394e-05
5.2590171e-05
5.8214365e-05
5.8908812e-05
5.6733597e-05
5.4153978e-05
6.524259e-05
5.5904255e-05
6.4801625e-05
6.9544798e-05
6.6131577e-05
6.0413609e-05
6.4869415e-05
6.1564939e-05
6.3511625e-05
6.5360198e-05
6.2252812e-05
7.4098018e-05
7.7152797e-05
7.3797467e-05
8.7302306e-05
7.4290209e-05
7.0742253e-05
7.0815822e-05
5.5742593e-05
5.4346956e-05
6.4544397e-05
5.7175279e-05
5.8521317e-05
7.0500014e-05
7.022062e-05
0.00025345784
0.00024158173
5.0129052e-05
4.8681797e-05
5.1572728e-05
5.2983026e-05
6.2213251e-05
6.3394379e-05
6.1004956e-05
5.9769809e-05
6.9907384e-05
7.9538438e-05
8.5611301e-05
7.8519907e-05
5.8004335e-05
6.2523768e-05
6.2996117e-05
6.6009845e-05
6.8279045e-05
7.1732023e-05
6.7318493e-05
7.5040262e-05
7.3456692e-05
7.1746782e-05
7.6636467e-05
7.849825e-05
7.8247116e-05
8.5571633e-05
)


1747
(
0.034687332
0.01257082
1.2090683e-05
1.1571734e-05
3.6696342e-05
2.9208551e-05
3.9528629e-05
4.9159659e-05
2.145299e-05
2.7036592e-05
1.9794788e-05
1.3858812e-05
7.4775519e-05
7.0064438e-05
5.3035439e-05
8.4136696e-05
0.0002104849
0.00018198924
0.00020644578
3.943077e-05
4.9800794e-05
0.00012469546
0.00015135962
3.643842e-05
2.8629295e-05
2.0260415e-05
1.4238507e-05
9.9789698e-05
6.9990705e-05
2.1524384e-05
2.6396355e-05
7.8641724e-05
5.4812139e-05
3.3195617e-05
3.4033596e-05
2.4542772e-05
3.0112017e-05
3.1538626e-05
2.6754566e-05
3.5602733e-05
4.2534034e-05
3.8881829e-05
3.2166224e-05
4.5719301e-05
4.363214e-05
2.3179857e-05
1.9872089e-05
2.2889811e-05
2.5028468e-05
2.4864191e-05
1.851627e-05
1.8159915e-05
1.8378079e-05
1.4166265e-05
1.6409341e-05
1.3138955e-05
1.72374e-05
6.3275147e-05
8.6776061e-05
5.2614225e-05
5.9399979e-05
6.3366883e-05
4.132863e-05
5.0261414e-05
5.7630617e-05
4.6695632e-05
9.4330208e-05
9.6959489e-05
0.00010617291
8.48516e-06
1.0169802e-05
1.4840872e-05
1.6809061e-05
1.4553278e-05
1.2613099e-05
1.2386999e-05
4.2630563e-05
7.111415e-05
4.6046614e-05
3.3643253e-05
6.5403062e-05
3.1043416e-05
1.8648685e-05
2.1621764e-05
3.2278391e-05
2.2779206e-05
2.4356437e-05
7.0038812e-05
8.7148327e-05
6.1560526e-05
9.5336215e-05
8.9402047e-05
8.4006363e-05
5.0333331e-05
5.9902367e-05
4.6249276e-05
3.3939116e-05
9.5595256e-05
0.00010364503
3.0918332e-05
2.6298128e-05
2.8154919e-05
2.8771318e-05
3.8138545e-05
3.6551939e-05
3.4314063e-05
4.0807431e-05
2.1436738e-05
2.1336923e-05
2.3095383e-05
1.9880605e-05
1.6931848e-05
1.4847297e-05
1.5398859e-05
1.6044531e-05
7.6652898e-05
8.326115e-05
5.440743e-05
4.3962818e-05
4.6943578e-05
5.0177799e-05
0.00010913444
0.00012378345
1.7428275e-05
1.7126411e-05
7.7419643e-05
5.5065693e-05
1.8886512e-05
1.8758076e-05
3.7610812e-05
4.1448908e-05
8.0828541e-05
0.00012642481
0.026004098
0.0001525905
7.9075001e-05
3.7622106e-05
6.4848865e-05
0.00019458292
0.00041908351
0.00045580392
2.3734149e-06
7.6074931e-06
1.7205125e-05
3.1840906e-05
1.9949257e-05
3.1631284e-07
0.00012117694
1.7782142e-07
9.7366931e-05
8.5682703e-08
4.4761093e-05
1.4712479e-07
5.3657277e-05
4.4658175e-07
0.0002511578
3.6982441e-06
0.0003273394
0.00018679719
4.9674591e-05
0.00031079875
3.1025599e-07
1.1750049e-05
2.9794251e-06
4.7498308e-08
1.4648935e-05
7.1148709e-08
2.7117449e-05
7.4304668e-08
2.3217931e-05
1.5002153e-06
3.2704753e-06
1.2572813e-05
2.3717029e-05
1.0384455e-05
6.1201476e-06
0.00010728586
3.151244e-05
3.5513863e-06
3.7615848e-06
5.2006576e-06
1.0493718e-06
0.00025205785
1.0400044e-06
0.00031820932
7.5655362e-07
0.00020138795
9.0907922e-07
0.00016249414
3.0513345e-07
5.3530267e-05
2.5919761e-07
6.3252865e-05
3.7904476e-08
1.1094317e-05
4.546193e-07
1.7094254e-05
1.8926289e-07
4.5582635e-05
2.2128693e-07
3.903342e-05
6.5024914e-05
5.058811e-05
1.3127284e-06
0.00049567573
4.8792736e-06
0.00040198177
8.8443377e-05
0.00013051549
0.00040641474
0.00051785083
5.6646711e-05
0.00033340042
0.00045509412
0.00021567746
2.5755864e-07
2.1528251e-07
1.0228991e-07
1.2243066e-07
6.7836709e-07
8.015137e-07
0.00041942822
0.00038395751
3.2880246e-05
4.046891e-05
6.2407836e-07
0.00010877033
5.1672317e-07
0.00013236397
2.6994667e-05
2.2346454e-05
1.3221921e-05
1.1240265e-05
3.6134047e-07
9.0119273e-05
4.3064767e-07
7.5233809e-05
1.5647068e-05
1.8635418e-05
2.2410889e-08
3.0615336e-06
5.6770207e-09
6.19622e-08
6.4831215e-08
4.4865989e-06
4.3579663e-06
2.8302631e-08
2.4988006e-05
8.490229e-08
2.1249948e-05
4.8177827e-06
5.4110259e-06
8.2622047e-06
9.6103179e-06
1.6014819e-07
2.8988816e-05
1.2843089e-07
3.3585532e-05
7.1354058e-06
6.1903425e-06
3.4671151e-06
2.1929121e-06
1.5360182e-05
1.8945177e-05
8.6434104e-06
7.2489581e-06
6.8225444e-05
4.5223628e-05
4.7799079e-06
3.2607826e-06
3.988774e-06
4.4551489e-06
5.2006705e-05
9.458597e-05
4.3315271e-05
2.5583228e-05
0.00036064642
0.0003602731
0.00019025543
0.00011546395
0.00029069451
4.8598216e-06
9.8966338e-06
6.3678959e-06
1.2883225e-05
1.2672841e-05
1.0736279e-05
1.2386866e-05
7.3500072e-06
5.1539133e-06
1.2972972e-05
2.1903189e-05
1.2780716e-05
0.00022905507
0.00032812095
0.00020110078
0.00013603366
0.00011995962
0.0002934745
0.00036459098
0.0002178153
0.000390699
0.00030699748
0.00028963195
0.00015270558
0.00015160764
0.00020886099
0.00010884585
0.00048994224
0.00037081641
0.00025277321
0.00027372856
1.7231249e-05
1.1913979e-05
7.2657217e-06
3.0387307e-05
4.8921627e-05
0.00010849568
7.71105e-05
7.5107024e-05
1.5074781e-05
3.3747648e-05
0.00048564382
0.0004312635
0.00016653646
0.00011631473
0.0001871778
0.00025477015
0.00010466109
1.5234753e-05
1.5096892e-05
3.4871116e-05
3.655119e-05
0.00011935465
8.8282801e-05
9.444938e-05
0.00013077991
1.2915777e-05
1.4793705e-05
3.2566187e-05
3.6211454e-05
0.00038890761
0.00057176709
0.00038404684
0.00048912528
0.00052168488
5.7812698e-06
0.000260117
0.00028556242
0.00029365642
0.00043374393
0.00024705738
0.00017637811
0.00015475347
0.0001615804
0.00014113039
0.00027332148
0.00023335376
0.00033165052
0.00027561293
0.00040821164
0.00031536281
0.00037898421
0.00030440694
0.0001531441
0.00019021783
0.00017175284
0.00021876295
0.00017474119
0.00023488086
0.00017907768
0.0002342573
1.0672221e-05
1.4306065e-05
8.5054804e-06
9.1337235e-06
1.7691411e-05
1.5302323e-05
1.7897121e-05
1.5261564e-05
1.7898408e-05
1.3716787e-05
1.548738e-05
1.4338257e-05
1.7593899e-05
8.8970179e-06
7.7230654e-06
1.2908438e-05
1.2842592e-05
1.142638e-05
1.1974114e-05
6.3586194e-05
7.75883e-05
0.00013364595
0.00014462151
6.3468635e-06
1.8282502e-05
1.261915e-05
0.00033029718
0.00039473864
0.00042879978
0.00031296181
0.00026516857
0.00028162767
0.00028447662
9.3554381e-06
2.2920357e-05
2.675841e-05
1.5221262e-05
1.8583908e-05
0.0001477893
0.00013103432
0.00016060358
0.00020939149
0.00023240082
1.8583258e-05
3.6202345e-05
1.8753896e-05
1.6435114e-05
1.8497481e-05
3.5463429e-05
0.00076176492
0.00020881941
0.0005435264
0.00048870813
0.00075556121
0.00015336312
0.00034200934
0.00019805779
0.00016115556
0.00040016071
0.00017923732
0.00017743901
0.00024403347
0.0004206573
0.00058268345
0.00022752355
0.00033678623
0.00028485827
0.00039180009
1.4516866e-05
1.30408e-05
1.9049077e-05
1.9065953e-05
1.5760763e-05
1.6787893e-05
0.00058679494
0.00068335248
0.00022644642
0.00020319281
0.00032083171
0.00029901703
0.00024986176
0.00014287724
1.8914602e-05
1.8679493e-05
0.000288352
0.0002402235
0.00012730871
8.8885614e-05
3.4330718e-05
9.4393211e-05
0.00013327637
3.6493168e-05
0.00018905892
0.00018740827
0.00065065587
0.00045810576
0.00047792433
0.00060556415
0.00067185456
0.00042919696
0.0004731766
0.0006525099
9.8499673e-05
0.0001255157
0.00023418212
0.00016683117
0.00033991622
0.00057960928
0.0005723278
0.00053919497
7.9265012e-05
6.4669901e-05
4.4204789e-05
5.3254696e-05
2.2398152e-05
2.6320928e-05
3.695108e-05
3.1090535e-05
9.3169654e-06
1.1310639e-05
1.8675171e-05
1.8947316e-05
1.823364e-05
1.7608637e-05
0.00049098342
0.00042568766
0.00054959165
0.00038784782
0.00043437288
0.00031159524
0.00034896734
0.00038212265
0.00025762888
0.00019266312
0.00021751783
0.00022625455
0.00029379246
0.00027694642
0.00033520509
0.00024554586
0.0003297961
0.00037958952
0.00021394132
0.00018565425
7.5277505e-06
8.4596356e-06
1.0720356e-05
9.4372063e-06
1.9144759e-05
1.6447323e-05
1.2311878e-05
1.4201695e-05
1.7926235e-05
1.8354922e-05
4.2376832e-05
4.3601988e-05
4.7044004e-05
3.9451148e-05
4.5481933e-05
5.4585784e-05
5.0694806e-05
4.8770545e-05
5.9701702e-05
7.2612044e-05
6.7700943e-05
6.3746259e-05
5.587847e-05
5.8713163e-05
5.2236528e-05
6.3081437e-05
3.4129175e-05
4.0370377e-05
3.67051e-05
3.7371299e-05
3.1713444e-05
3.1944289e-05
3.4585116e-05
2.9431253e-05
2.2878323e-05
2.0589739e-05
1.9537626e-05
2.4355422e-05
2.513147e-05
2.9403098e-05
2.7249821e-05
2.6940747e-05
0.00011099304
0.0001080918
0.00012514408
9.1808846e-05
0.00017583488
0.00017078063
0.00019915293
0.00015177017
0.00015591457
0.00012118773
0.00013920916
0.00013537087
7.3110681e-05
7.7988415e-05
6.8126678e-05
8.4321182e-05
7.9165302e-05
0.00010158878
8.6310944e-05
9.2258619e-05
1.744714e-05
1.5612484e-05
1.8889207e-05
2.1140677e-05
2.2290979e-05
2.1971774e-05
2.5923592e-05
2.6360561e-05
2.2501808e-05
2.2577914e-05
2.6857027e-05
2.6685749e-05
1.8934502e-05
2.0130966e-05
2.4301374e-05
2.2912019e-05
1.2804895e-05
1.089382e-05
2.1776432e-05
2.7946043e-05
2.502015e-05
2.4356167e-05
1.0611753e-05
1.3349409e-05
1.2459636e-05
1.6018435e-05
1.6240902e-05
1.4181352e-05
1.8411827e-05
2.1156416e-05
2.8934195e-05
3.2799907e-05
3.2016948e-05
2.9514287e-05
2.1131277e-05
2.1572685e-05
2.4935866e-05
2.5427881e-05
3.0376737e-05
2.7678701e-05
2.8299816e-05
3.1194342e-05
1.8023691e-05
1.8034874e-05
1.6407798e-05
1.7102863e-05
2.2228993e-05
2.2494351e-05
2.6840309e-05
2.6603844e-05
3.0273476e-05
3.3473568e-05
2.9977668e-05
3.3945923e-05
3.0358556e-05
3.4111469e-05
3.0194696e-05
3.4168664e-05
2.7854481e-05
3.0163893e-05
2.6337353e-05
3.1811792e-05
2.1759821e-05
2.106632e-05
2.5360589e-05
2.611939e-05
2.8977139e-05
3.3729073e-05
3.2977242e-05
2.9745735e-05
3.5961482e-05
3.0415565e-05
1.5568469e-05
3.876236e-05
3.6217469e-05
5.3565851e-05
5.6914155e-05
3.1556629e-05
3.3817222e-05
2.2052741e-05
2.1061123e-05
6.4191638e-05
6.0421276e-05
7.1042015e-06
1.7170464e-05
1.5107087e-05
4.1450708e-05
4.4281491e-05
5.0344851e-05
4.7247392e-05
2.9433574e-05
2.7437382e-05
2.3811584e-05
2.5563267e-05
0.00012099252
7.6541954e-05
6.8456023e-05
7.3203344e-05
0.00032564644
0.00025289977
0.00049105287
0.00034678519
0.00043558739
0.00055131131
0.00028228012
0.00024562378
0.00038134638
0.00038683353
0.00029295216
0.00032136942
0.00014714082
0.0001836797
0.00021958788
0.00019753088
0.00032120308
0.00037228172
0.00023905489
0.00031338836
0.0003180175
0.0003347413
3.5198734e-05
4.131466e-05
5.9455401e-05
5.0241776e-05
5.7627007e-05
4.8660851e-05
6.9296216e-05
8.2191798e-05
0.00012090822
9.9420001e-05
0.00013786044
0.00016619903
6.8659386e-05
8.2338655e-05
0.00011590738
9.6714198e-05
0.00018075548
0.00020253273
0.00019099384
0.0001704233
0.00025250174
0.00022640302
0.00021058068
0.0002331045
0.00036490522
0.00033881417
0.00029873349
0.0003150298
0.00028051484
0.0003097712
0.00027815763
0.00025485624
1.177109e-05
1.3653894e-05
0.0001829731
0.00027511471
3.3197039e-05
3.2705998e-05
2.918036e-05
4.1188784e-05
2.980923e-05
2.5453729e-05
3.2950827e-05
4.2780024e-05
1.8913758e-05
2.1989225e-05
3.2334633e-05
2.4761705e-05
8.1764917e-05
7.5948744e-05
9.0749897e-05
9.7910157e-05
6.5239554e-05
7.0439418e-05
8.3968019e-05
7.7144551e-05
4.7494122e-05
5.154257e-05
6.0122882e-05
5.4600409e-05
6.0369034e-05
5.5809031e-05
6.5247673e-05
7.1215535e-05
4.3330612e-05
3.9707265e-05
4.0842362e-05
4.9482078e-05
3.8828751e-05
3.7045029e-05
3.5782122e-05
4.4744387e-05
3.3506755e-05
3.6639602e-05
4.2520924e-05
3.4756422e-05
0.00016002302
0.00014260233
0.00012457144
0.00015204818
8.7330821e-05
9.4417472e-05
0.00010242685
0.00010424275
0.00011487036
0.00012831827
0.00010416345
0.0001279208
1.8761151e-05
1.883405e-05
1.7361481e-05
1.8040533e-05
4.7307235e-05
3.5567656e-05
4.4751748e-05
3.7431559e-05
4.8603156e-05
3.9384687e-05
3.8662207e-05
4.9340438e-05
4.8300884e-05
3.8378507e-05
4.67782e-05
3.9139988e-05
4.9052993e-05
3.9667893e-05
4.9453547e-05
3.9571032e-05
0.039451733
3.5846388e-05
2.9427204e-05
3.5197149e-05
3.2103462e-05
3.2938794e-05
2.4516406e-05
2.8484993e-05
2.1747574e-05
1.5937385e-05
1.3283954e-07
2.7487607e-05
8.5560965e-08
2.0714598e-07
3.6437419e-05
2.1047241e-07
1.6130072e-07
3.034404e-05
1.7409382e-07
2.0335886e-07
3.4491616e-05
1.9938316e-07
2.6194505e-05
3.1235714e-05
1.8546962e-07
1.8025558e-07
3.3735681e-05
1.9044004e-07
1.9496332e-07
5.8787601e-06
6.858579e-06
6.4275406e-06
7.3003651e-06
7.589398e-06
8.0352074e-06
7.8188955e-06
8.2435527e-06
8.4410795e-06
0.00013048986
1.7078003e-05
1.8937464e-05
1.940475e-05
1.6196464e-05
0.00014682672
9.81586e-05
0.0001395628
8.6706523e-05
9.3152563e-05
0.00017709309
0.00020565236
1.344467e-05
1.7828218e-05
1.8372163e-05
1.9889545e-05
0.0015552894
0.0032522234
0.0045688094
0.019136343
2.5237259e-06
8.3821718e-05
2.5524826e-07
5.5536091e-05
1.2808692e-05
1.9757615e-05
2.4746106e-05
4.4983135e-05
5.2036496e-05
6.2818483e-05
5.9283136e-05
5.2822743e-05
6.4738925e-05
5.6958938e-05
5.8919215e-05
6.7405972e-05
6.9968822e-05
6.3196936e-05
7.5034876e-05
3.7783646e-05
5.8013455e-05
5.5789198e-05
0.00052259691
0.00084567035
7.8003143e-05
0.00042629821
0.00061465391
0.00032466414
6.3542092e-05
7.7045522e-05
2.4868275e-07
0.00022530581
2.0308921e-07
0.00027278391
5.2694673e-05
4.3920074e-05
2.9275663e-07
0.00040671655
3.0847645e-07
0.00033216485
0.0001202894
9.5522716e-05
2.5013384e-06
0.00086805845
6.7500214e-06
0.00074139738
0.00015566659
0.00021415666
2.4186637e-06
0.00049728254
1.3553412e-06
0.00060864316
2.7135215e-05
2.3696579e-05
4.2890306e-07
0.00018710538
1.5129881e-07
0.00015515021
3.1427382e-05
3.6792951e-05
5.4631817e-07
0.00010619819
2.6343365e-07
0.00012867963
2.1095363e-05
2.1716596e-05
0.00073429932
0.00053123746
0.0004508508
0.00057567658
0.0004611201
0.00038314486
0.00056721204
0.00078691503
0.0013322858
0.00099906329
0.00051264164
0.0005598522
0.00053689733
0.0006034651
0.0012750995
0.00075374245
7.0383995e-05
9.1607488e-05
8.4555266e-05
7.6284468e-05
8.221712e-05
9.588958e-05
8.0086846e-05
9.798941e-05
7.667141e-05
8.5063845e-05
8.8974437e-05
7.3698642e-05
0.00066235476
0.00067520736
0.0010308737
0.00074407294
6.2210018e-05
6.7307375e-05
7.3063676e-05
7.0860621e-05
6.9803882e-05
6.7398094e-05
5.5358421e-05
4.6629205e-05
7.4093471e-05
7.411911e-05
7.1817713e-05
7.3305713e-05
0.00010845102
9.9810185e-05
0.00011491781
0.00013808185
9.720335e-05
0.0001023773
0.0001258811
0.00011776323
0.00011416544
0.0001161591
0.00014765199
0.00014506036
0.0011138832
0.0009281597
0.00087515945
0.00065653899