/*--------------------------------*- C++ -*----------------------------------*\
  =========                 |
  \\      /  F ield         | OpenFOAM: The Open Source CFD Toolbox
   \\    /   O peration     | Website:  https://openfoam.org
    \\  /    A nd           | Version:  8
     \\/     M anipulation  |
\*---------------------------------------------------------------------------*/
/*   Windows 32 and 64 bit porting by blueCAPE: http://www.bluecape.com.pt   *\
|  Based on Windows porting (2.0.x v4) by Symscape: http://www.symscape.com   |
\*---------------------------------------------------------------------------*/
FoamFile
{
    version     2.0;
    format      ascii;
    class       labelListList;
    location    "constant/vegetation";
    object      globalFaceFaces;
}
// * * * * * * * * * * * * * * * * * * * * * * * * * * * * * * * * * * * * * //


357
(

1114
(
172
184
186
188
189
201
203
223
241
242
285
288
289
306
307
308
310
311
313
314
316
317
318
319
320
536
545
546
547
548
691
692
697
698
712
715
728
730
731
733
735
736
737
738
884
885
972
973
1030
1034
1035
1036
1042
1043
1050
1051
1052
1053
1054
1055
1056
1082
1085
1086
1144
1148
1149
1150
1151
1208
1211
1212
1239
1242
1243
1244
1245
1246
1259
1260
1261
1262
1263
1264
1265
1269
1270
1276
1277
1278
1279
1295
1296
1297
1298
1299
1300
1301
1326
1327
1328
1329
1330
1335
1336
1337
1338
1339
1340
1341
1342
1343
1357
1359
1362
1364
1410
1411
1412
1433
1434
1435
1442
1443
1444
1445
1446
1524
1542
1543
1544
1545
1546
1547
1588
1589
1626
1627
1628
1629
1870
1871
1908
1909
2089
2091
2092
2093
2095
2102
2103
2104
2105
2106
2107
2108
2110
2111
2112
2113
2119
2120
2122
2126
2127
2130
2131
2133
2136
2137
2138
2146
2148
2152
2156
2159
2162
2164
2187
2189
2217
2226
2228
2229
2267
2268
2316
2317
2318
2319
2341
2342
2344
3082
3083
3084
3085
3086
3087
3088
3089
3090
3091
3092
3093
3094
3095
3096
3097
3098
3099
3100
3101
3102
3103
3104
3105
3106
3107
3108
3109
3110
3111
3112
3113
3114
3115
3116
3117
3118
3119
3120
3121
3122
3123
3124
3125
3126
3127
3129
3133
3134
3135
3136
3137
3140
3141
3142
3143
3144
3145
3146
3147
3148
3149
3154
3155
3156
3157
3158
3159
3160
3161
3164
3165
3166
3167
3168
3169
3170
3171
3172
3173
3178
3179
3180
3181
3182
3183
3184
3185
3186
3187
3188
3189
3190
3191
3192
3193
3194
3195
3196
3197
3198
3199
3200
3201
3202
3203
3204
3205
3206
3207
3208
3209
3210
3211
3212
3213
3214
3215
3216
3217
3218
3219
3220
3221
3222
3223
3224
3225
3226
3227
3228
3229
3230
3231
3232
3233
3234
3235
3240
3241
3242
3243
3244
3276
3277
3278
3295
3296
3297
3298
3299
3300
3301
3302
3303
3304
3305
3306
3307
3308
3309
3310
3311
3312
3313
3314
3315
3316
3317
3318
3319
3320
3321
3322
3323
3324
3325
3326
3327
3328
3329
3330
3343
3344
3346
3363
3364
3365
3366
3367
3368
3369
3370
3371
3372
3373
3374
3375
3376
3377
3378
3380
3381
3386
3449
3451
3452
3453
3454
3455
3456
3536
3537
3538
3539
3540
3541
3542
3543
3548
3549
3550
3551
3554
3555
3556
3557
3558
3559
3560
3561
3562
3563
3564
3565
3566
3567
3572
3573
3574
3575
3578
3579
3581
3712
3713
3759
3760
3761
3762
3763
3764
3774
3775
3776
3777
3784
3785
3786
3787
3788
3789
3790
3791
3793
3864
3866
3867
3871
3872
3945
3946
3947
3948
3949
3950
3951
3952
4028
4029
4030
4031
4032
4033
4034
4035
4036
4037
4038
4039
4040
4041
4042
4043
4044
4045
4046
4047
4048
4049
4050
4051
4052
4053
4054
4055
4056
4057
4058
4059
4060
4061
4062
4063
4064
4065
4066
4067
4068
4069
4070
4071
4072
4073
4074
4075
4076
4077
4078
4079
4080
4081
4082
4083
4084
4085
4086
4087
4088
4089
4090
4091
4092
4093
4094
4095
4096
4097
4098
4099
4100
4101
4102
4103
4104
4105
4106
4107
4108
4109
4110
4111
4112
4113
4114
4115
4116
4117
4118
4119
4120
4121
4122
4123
4124
4125
4126
4127
4128
4129
4130
4131
4132
4133
4134
4135
4136
4137
4138
4139
4140
4141
4142
4143
4144
4145
4146
4147
4148
4149
4150
4151
4152
4153
4154
4155
4156
4157
4158
4159
4160
4161
4162
4163
4164
4165
4166
4167
4168
4169
4170
4171
4172
4173
4174
4175
4176
4177
4178
4179
4180
4181
4182
4183
4184
4185
4186
4187
4188
4189
4190
4191
4192
4193
4194
4195
4196
4197
4198
4199
4200
4201
4202
4203
4204
4205
4206
4207
4208
4209
4210
4211
4212
4213
4214
4215
4216
4217
4218
4219
4220
4221
4222
4223
4224
4225
4226
4227
4228
4229
4230
4231
4232
4233
4234
4235
4236
4237
4238
4239
4240
4241
4242
4243
4244
4245
4246
4247
4248
4249
4250
4251
4252
4253
4254
4255
4256
4257
4258
4259
4260
4261
4262
4263
4264
4265
4266
4267
4268
4269
4270
4271
4272
4273
4274
4275
4276
4277
4278
4279
4280
4281
4282
4283
4284
4285
4286
4287
4288
4289
4290
4291
4292
4293
4294
4295
4296
4297
4298
4299
4300
4301
4302
4303
4304
4305
4306
4307
4308
4309
4310
4311
4312
4313
4314
4315
4316
4317
4318
4319
4320
4321
4322
4323
4324
4325
4326
4327
4328
4329
4330
4331
4332
4333
4334
4335
4336
4337
4338
4339
4340
4341
4342
4343
4344
4345
4346
4347
4348
4349
4350
4351
4352
4353
4354
4355
4356
4357
4358
4359
4360
4361
4362
4363
4364
4365
4366
4367
4368
4369
4370
4371
4372
4373
4374
4375
4376
4377
4378
4379
4380
4381
4382
4383
4384
4385
4386
4387
4388
4389
4390
4391
4392
4393
4394
4395
4396
4397
4398
4399
4400
4401
4402
4403
4404
4405
4406
4407
4408
4409
4410
4411
4412
4413
4414
4415
4416
4417
4418
4419
4420
4421
4422
4423
4424
4425
4426
4427
4428
4429
4430
4431
4432
4433
4434
4435
4436
4437
4438
4439
4440
4441
4442
4443
4444
4445
4446
4447
4448
4451
4515
4516
4517
4518
4519
4520
4527
4528
4529
4533
4534
4535
4536
4597
4598
4599
4600
4601
4602
4606
4642
4647
4655
4666
4667
4668
4713
4799
4801
4802
4803
4805
4806
4807
4810
4811
4814
4815
4816
4817
4818
4819
4820
4822
4824
4825
4826
4828
4829
4830
4831
4832
4843
4845
4846
4848
4849
4850
4851
4852
4853
4854
4855
4856
4857
4858
4859
4872
4873
4876
4878
4879
4880
4881
4883
4884
4885
4886
4887
4888
4889
4890
4891
4913
4920
4921
4931
4932
4934
4939
4940
4941
4942
4943
4966
4967
4968
4969
4976
4977
4978
4995
5000
5001
5003
5004
5005
5006
5010
5011
5012
5034
5036
5038
5040
5043
5044
5046
5048
5052
5053
5055
5056
5057
5058
5059
5068
5078
5087
5088
6204
6266
6267
6270
6272
6274
6324
6325
6326
6334
6337
6338
6339
6343
6381
6398
6399
6400
6404
6413
6500
6533
6536
6537
6888
6896
6897
6898
6900
6901
6908
6909
6910
6927
6929
6930
6931
6932
6933
6934
6955
6956
6957
6958
6959
6960
6961
6962
6963
6970
6971
6972
6974
6975
7021
7022
7030
7031
7044
7046
7047
7052
7053
7075
7077
7122
7123
7127
7128
7149
7150
7154
7155
7165
7172
7173
7174
7184
7185
7186
7195
7196
7197
7198
7199
7200
7204
7205
7206
7207
7209
)


1747
(
18
21
165
166
167
169
170
172
173
175
176
178
184
186
188
189
201
202
203
222
223
224
225
226
227
228
229
230
231
232
233
241
242
274
275
277
278
280
281
282
283
285
286
288
289
290
291
293
294
295
296
298
299
301
302
303
304
306
307
308
310
311
313
314
316
317
318
319
320
332
334
335
336
337
349
351
534
535
536
537
538
539
540
541
542
543
544
545
546
547
548
691
692
693
694
695
696
697
698
704
706
708
709
710
712
714
715
716
718
719
721
722
724
725
727
728
730
731
733
735
736
737
738
745
746
878
879
880
881
882
883
884
885
973
1030
1031
1032
1033
1034
1035
1036
1037
1038
1039
1040
1041
1042
1043
1044
1045
1046
1047
1048
1049
1050
1051
1052
1053
1054
1055
1056
1057
1058
1059
1060
1061
1062
1063
1064
1065
1067
1069
1081
1082
1083
1084
1085
1086
1090
1091
1092
1110
1111
1112
1113
1114
1115
1116
1117
1118
1119
1120
1121
1122
1123
1124
1125
1126
1127
1128
1129
1130
1131
1132
1133
1134
1135
1136
1137
1138
1139
1140
1141
1142
1143
1144
1145
1146
1147
1148
1149
1150
1151
1152
1153
1154
1155
1156
1157
1158
1159
1160
1161
1162
1163
1164
1165
1166
1167
1168
1169
1170
1171
1172
1173
1174
1175
1176
1177
1178
1179
1180
1181
1182
1183
1184
1185
1186
1187
1188
1196
1198
1207
1208
1209
1210
1211
1212
1214
1218
1219
1220
1238
1239
1240
1241
1242
1243
1244
1245
1246
1247
1248
1249
1250
1251
1252
1253
1254
1255
1256
1257
1258
1259
1260
1261
1262
1263
1264
1265
1268
1269
1270
1271
1272
1273
1274
1275
1276
1277
1278
1279
1285
1286
1287
1288
1289
1290
1291
1292
1293
1294
1295
1296
1297
1298
1299
1300
1301
1314
1315
1316
1317
1318
1319
1320
1321
1322
1323
1324
1325
1326
1327
1328
1329
1330
1334
1335
1336
1337
1338
1339
1340
1341
1342
1343
1357
1358
1359
1360
1362
1363
1364
1365
1366
1367
1368
1369
1370
1371
1372
1373
1374
1375
1376
1377
1378
1379
1380
1381
1382
1383
1384
1385
1386
1388
1389
1390
1391
1392
1393
1409
1410
1411
1412
1413
1414
1420
1425
1426
1427
1428
1433
1434
1435
1437
1438
1439
1440
1441
1442
1443
1444
1445
1446
1454
1455
1456
1457
1458
1459
1468
1469
1470
1475
1476
1477
1480
1481
1482
1483
1488
1489
1516
1517
1518
1519
1524
1525
1526
1528
1530
1532
1534
1537
1538
1540
1541
1542
1543
1544
1545
1546
1547
1558
1560
1561
1562
1566
1567
1568
1569
1570
1571
1572
1573
1574
1575
1576
1577
1578
1579
1580
1581
1582
1583
1584
1585
1586
1587
1588
1589
1590
1591
1592
1593
1594
1595
1596
1597
1600
1601
1604
1605
1608
1609
1610
1611
1612
1613
1614
1615
1616
1617
1618
1619
1620
1621
1622
1623
1624
1625
1626
1627
1628
1629
1630
1631
1632
1633
1634
1635
1636
1637
1655
1656
1657
1658
1659
1660
1661
1662
1663
1664
1665
1666
1667
1668
1669
1670
1671
1672
1673
1674
1675
1676
1677
1678
1679
1680
1681
1682
1683
1684
1685
1686
1687
1688
1694
1695
1696
1697
1698
1699
1700
1701
1702
1703
1704
1705
1706
1707
1708
1709
1710
1711
1712
1713
1714
1715
1716
1717
1718
1719
1720
1721
1722
1723
1724
1725
1726
1727
1728
1729
1732
1733
1734
1735
1736
1737
1738
1739
1740
1741
1742
1743
1744
1745
1746
1747
1748
1749
1750
1751
1752
1753
1754
1755
1756
1757
1758
1759
1760
1761
1762
1763
1764
1765
1766
1767
1768
1769
1770
1771
1772
1773
1774
1775
1776
1777
1778
1779
1780
1781
1782
1783
1784
1785
1787
1788
1791
1794
1795
1796
1797
1798
1799
1800
1801
1802
1803
1809
1821
1822
1823
1824
1825
1826
1827
1828
1829
1830
1838
1839
1840
1841
1842
1843
1844
1845
1846
1847
1848
1849
1858
1859
1860
1861
1862
1863
1864
1865
1866
1867
1868
1869
1870
1871
1872
1873
1874
1875
1876
1877
1878
1879
1880
1881
1882
1883
1884
1885
1886
1887
1890
1891
1892
1893
1894
1895
1896
1897
1898
1899
1900
1901
1902
1903
1904
1905
1906
1907
1908
1909
1910
1911
1912
1913
1914
1915
1916
1917
1918
1919
1920
1921
1932
1933
1934
1935
1936
1937
1938
1939
1940
1941
1942
1943
1944
1945
1946
1947
1948
1949
1950
1951
1952
1953
1954
1955
1956
1957
1958
1959
1960
1961
1962
1963
1964
1965
1966
1967
1968
1969
1970
1971
1976
1977
1978
1979
1980
1981
1982
1983
1984
1985
1986
1987
1988
1989
1990
1991
1992
1993
1994
1995
2088
2089
2090
2091
2092
2093
2094
2095
2096
2097
2102
2103
2104
2105
2106
2107
2108
2109
2110
2111
2112
2113
2114
2117
2118
2119
2120
2121
2122
2123
2126
2127
2130
2131
2132
2133
2134
2135
2136
2138
2139
2140
2146
2149
2150
2151
2152
2153
2161
2163
2187
2189
2190
2191
2214
2217
2219
2268
2316
2317
2318
2319
2341
2342
2344
2685
2686
2697
2698
2865
2866
2867
2868
2869
2870
2871
2872
2906
2908
2909
3082
3083
3084
3085
3086
3087
3088
3089
3090
3091
3092
3093
3094
3095
3096
3097
3098
3099
3100
3101
3102
3103
3104
3105
3106
3107
3108
3109
3110
3111
3112
3113
3114
3115
3116
3117
3118
3119
3120
3121
3122
3123
3124
3125
3126
3127
3128
3129
3130
3131
3132
3133
3134
3135
3136
3137
3138
3139
3140
3141
3142
3143
3144
3145
3146
3147
3148
3149
3150
3151
3152
3153
3154
3155
3156
3157
3158
3159
3160
3161
3162
3163
3164
3165
3166
3167
3168
3169
3170
3171
3172
3173
3174
3175
3176
3177
3178
3179
3180
3181
3182
3183
3184
3185
3186
3187
3188
3189
3190
3191
3192
3193
3194
3195
3196
3197
3198
3199
3200
3201
3202
3203
3204
3205
3206
3207
3208
3209
3210
3211
3212
3213
3214
3215
3216
3217
3218
3219
3220
3221
3222
3223
3224
3225
3226
3227
3228
3229
3230
3231
3232
3233
3234
3235
3236
3237
3238
3239
3240
3241
3242
3243
3244
3245
3246
3247
3248
3249
3250
3251
3252
3253
3254
3255
3256
3257
3258
3259
3260
3261
3262
3263
3264
3265
3266
3267
3268
3269
3270
3271
3272
3273
3274
3275
3276
3277
3278
3279
3280
3281
3282
3283
3284
3285
3286
3287
3288
3289
3290
3291
3292
3293
3294
3295
3296
3297
3298
3299
3300
3301
3302
3303
3304
3305
3306
3307
3308
3309
3310
3311
3312
3313
3314
3315
3316
3317
3318
3319
3320
3321
3322
3323
3324
3325
3326
3327
3328
3329
3330
3331
3332
3333
3334
3335
3336
3337
3338
3339
3340
3341
3342
3343
3344
3345
3346
3347
3348
3349
3350
3351
3352
3353
3354
3355
3356
3357
3358
3359
3360
3361
3362
3363
3364
3365
3366
3367
3368
3369
3370
3371
3372
3373
3374
3375
3376
3377
3378
3380
3384
3385
3386
3389
3390
3451
3452
3453
3454
3455
3456
3536
3537
3538
3539
3540
3541
3542
3543
3548
3549
3550
3551
3554
3555
3556
3557
3558
3559
3560
3561
3562
3563
3564
3565
3566
3567
3572
3573
3574
3575
3579
3712
3713
3774
3775
3776
3777
3784
3785
3786
3787
3947
3948
3949
3950
3951
3952
4028
4029
4030
4031
4032
4033
4034
4035
4036
4037
4038
4039
4040
4041
4042
4043
4044
4045
4046
4047
4048
4049
4050
4051
4052
4053
4054
4055
4056
4057
4058
4059
4060
4061
4062
4063
4064
4065
4066
4067
4068
4069
4070
4071
4072
4073
4074
4075
4076
4077
4078
4079
4080
4081
4082
4083
4084
4085
4086
4087
4088
4089
4090
4091
4092
4093
4094
4095
4096
4097
4098
4099
4100
4101
4102
4103
4104
4105
4106
4107
4108
4109
4110
4111
4112
4113
4114
4115
4116
4117
4118
4119
4120
4121
4122
4123
4124
4125
4126
4127
4128
4129
4130
4131
4132
4133
4134
4135
4136
4137
4138
4139
4140
4141
4142
4143
4144
4145
4146
4147
4148
4149
4150
4151
4152
4153
4154
4155
4156
4157
4158
4159
4160
4161
4162
4163
4164
4165
4166
4167
4168
4169
4170
4171
4172
4173
4174
4175
4176
4177
4178
4179
4180
4181
4182
4183
4184
4185
4186
4187
4188
4189
4190
4191
4192
4193
4194
4195
4196
4197
4198
4201
4202
4203
4204
4205
4206
4207
4208
4209
4210
4211
4212
4213
4214
4215
4216
4217
4218
4219
4220
4221
4222
4223
4224
4225
4226
4227
4228
4229
4230
4231
4232
4233
4234
4235
4236
4237
4238
4239
4240
4241
4242
4243
4244
4245
4246
4247
4248
4249
4250
4251
4252
4253
4254
4255
4256
4257
4258
4259
4260
4261
4262
4263
4264
4265
4266
4267
4268
4269
4270
4271
4272
4273
4274
4275
4276
4277
4278
4279
4280
4281
4282
4283
4284
4285
4286
4287
4288
4289
4308
4309
4310
4311
4312
4313
4315
4316
4317
4318
4319
4320
4321
4322
4323
4324
4341
4342
4343
4361
4362
4363
4364
4365
4366
4367
4368
4369
4370
4371
4372
4373
4374
4375
4376
4377
4378
4379
4380
4381
4382
4383
4384
4385
4386
4387
4388
4389
4390
4391
4392
4393
4394
4395
4396
4397
4398
4399
4400
4401
4402
4403
4404
4405
4406
4407
4408
4411
4412
4428
4432
4439
4440
4441
4442
4443
4444
4445
4446
4447
4448
4451
4452
4453
4460
4517
4518
4519
4520
4523
4526
4535
4536
4800
4802
4804
4805
4806
4808
4809
4812
4813
4814
4815
4825
4830
4831
4832
4833
4834
4839
4840
4841
4842
4843
4844
4854
4855
4856
4857
4858
4859
4860
4863
4866
4867
4868
4869
4870
4871
4887
4888
4889
4890
4891
4892
4900
4901
4902
4903
4904
4905
4906
4907
4920
4922
4936
4937
4938
4940
4941
4942
4943
4972
4974
4975
4978
5010
5011
5012
5039
5044
5045
5046
5056
5057
5058
5059
5064
5065
5066
5067
5068
6205
6271
6273
6332
6333
6334
6335
6336
6337
6380
6382
6412
6413
6414
6415
6416
6417
6534
6535
6661
6662
6663
6664
6665
6666
6889
6899
6900
6952
6953
6954
6955
6956
6957
6964
6965
6966
6967
6968
6969
6970
6971
6972
6973
6974
6975
7021
7043
7044
7049
7050
7052
7053
7076
7077
7149
7150
7159
7160
7164
7165
7201
7202
7203
7204
7206
7207
7208
7209
7210
7211
7212
)


1211
(
18
172
184
186
188
189
201
202
203
223
241
242
283
285
288
289
306
307
308
310
311
313
314
316
317
318
319
320
534
536
545
546
547
548
691
692
697
698
710
712
714
715
728
730
731
733
735
736
737
738
878
884
885
972
973
1030
1034
1035
1036
1042
1043
1045
1050
1051
1052
1053
1054
1055
1056
1082
1085
1086
1144
1145
1148
1149
1150
1151
1207
1208
1211
1212
1239
1242
1243
1244
1245
1246
1259
1260
1261
1262
1263
1264
1265
1268
1269
1270
1271
1276
1277
1278
1279
1295
1296
1297
1298
1299
1300
1301
1326
1327
1328
1329
1330
1335
1336
1337
1338
1339
1340
1341
1342
1343
1357
1358
1359
1360
1362
1363
1364
1365
1409
1410
1411
1412
1433
1434
1435
1442
1443
1444
1445
1446
1524
1542
1543
1544
1545
1546
1547
1588
1589
1626
1627
1628
1629
1870
1871
1908
1909
2089
2090
2091
2092
2093
2095
2105
2106
2107
2109
2110
2111
2112
2113
2117
2118
2119
2120
2121
2122
2131
2132
2133
2134
2135
2139
2140
2149
2150
2153
2190
2191
2217
2227
2229
2270
2316
2317
2318
2319
2341
2342
2344
2685
2686
2697
2698
2865
2866
2867
2868
2869
2870
2871
2872
2906
2908
2909
3081
3082
3083
3084
3085
3086
3087
3088
3089
3090
3091
3092
3093
3094
3095
3096
3097
3098
3099
3100
3101
3102
3103
3104
3105
3106
3107
3108
3109
3110
3111
3112
3113
3114
3115
3116
3117
3118
3119
3120
3121
3122
3123
3124
3125
3126
3127
3128
3129
3130
3131
3132
3133
3134
3135
3136
3137
3138
3139
3140
3141
3142
3143
3144
3145
3146
3147
3148
3149
3150
3151
3152
3153
3154
3155
3156
3157
3158
3159
3160
3161
3162
3163
3164
3165
3166
3167
3168
3169
3170
3171
3172
3173
3174
3175
3176
3177
3178
3179
3180
3181
3182
3183
3184
3185
3186
3187
3188
3189
3190
3191
3192
3193
3194
3195
3196
3197
3198
3199
3200
3201
3202
3203
3204
3205
3206
3207
3208
3209
3210
3211
3212
3213
3214
3215
3216
3217
3218
3219
3220
3221
3222
3223
3224
3225
3226
3227
3228
3229
3230
3231
3232
3233
3234
3235
3236
3237
3238
3239
3240
3241
3242
3243
3244
3245
3246
3247
3248
3249
3250
3251
3252
3253
3254
3255
3256
3257
3258
3259
3260
3261
3262
3263
3264
3265
3266
3267
3268
3269
3270
3271
3272
3273
3274
3275
3276
3277
3278
3279
3280
3281
3282
3283
3284
3285
3286
3287
3288
3289
3290
3291
3292
3293
3294
3295
3296
3297
3298
3299
3300
3301
3302
3303
3304
3305
3306
3307
3308
3309
3310
3311
3312
3313
3314
3315
3316
3317
3318
3319
3320
3321
3322
3323
3324
3325
3326
3327
3328
3329
3330
3331
3332
3333
3334
3335
3336
3337
3338
3339
3340
3341
3342
3343
3344
3345
3346
3347
3348
3349
3350
3351
3352
3353
3354
3355
3356
3357
3358
3359
3360
3361
3362
3363
3364
3365
3366
3367
3368
3369
3370
3371
3372
3373
3374
3375
3376
3377
3378
3380
3381
3384
3385
3386
3387
3389
3448
3450
3451
3452
3453
3454
3455
3456
3536
3537
3538
3539
3540
3541
3542
3543
3548
3549
3550
3551
3554
3555
3556
3557
3558
3559
3560
3561
3562
3563
3564
3565
3566
3567
3572
3573
3574
3575
3578
3579
3580
3581
3712
3713
3759
3760
3761
3762
3763
3764
3774
3775
3776
3777
3784
3785
3786
3787
3788
3789
3790
3791
3793
3795
3864
3866
3867
3871
3872
3945
3946
3947
3948
3949
3950
3951
3952
4028
4029
4030
4031
4032
4033
4034
4035
4036
4037
4038
4039
4040
4041
4042
4043
4044
4045
4046
4047
4048
4049
4050
4051
4052
4053
4054
4055
4056
4057
4058
4059
4060
4061
4062
4063
4064
4065
4066
4067
4068
4069
4070
4071
4072
4073
4074
4075
4076
4077
4078
4079
4080
4081
4082
4083
4084
4085
4086
4087
4088
4089
4090
4091
4092
4093
4094
4095
4096
4097
4098
4099
4100
4101
4102
4103
4104
4105
4106
4107
4108
4109
4110
4111
4112
4113
4114
4115
4116
4117
4118
4119
4120
4121
4122
4123
4124
4125
4126
4127
4128
4129
4130
4131
4132
4133
4134
4135
4136
4137
4138
4139
4140
4141
4142
4143
4144
4145
4146
4147
4148
4149
4150
4151
4152
4153
4154
4155
4156
4157
4158
4159
4160
4161
4162
4163
4164
4165
4166
4167
4168
4169
4170
4171
4172
4173
4174
4175
4176
4177
4178
4179
4180
4181
4182
4183
4184
4185
4186
4187
4188
4189
4190
4191
4192
4193
4194
4195
4196
4197
4198
4199
4200
4201
4202
4203
4204
4205
4206
4207
4208
4209
4210
4211
4212
4213
4214
4215
4216
4217
4218
4219
4220
4221
4222
4223
4224
4225
4226
4227
4228
4229
4230
4231
4232
4233
4234
4235
4236
4237
4238
4239
4240
4241
4242
4243
4244
4245
4246
4247
4248
4249
4250
4251
4252
4253
4254
4255
4256
4257
4258
4259
4260
4261
4262
4263
4264
4265
4266
4267
4268
4269
4270
4271
4272
4273
4274
4275
4276
4277
4278
4279
4280
4281
4282
4283
4284
4285
4286
4287
4288
4289
4290
4291
4292
4293
4294
4295
4296
4297
4298
4299
4300
4301
4302
4303
4304
4305
4306
4307
4308
4309
4310
4311
4312
4313
4314
4315
4316
4317
4318
4319
4320
4321
4322
4323
4324
4325
4326
4327
4328
4329
4330
4331
4332
4333
4334
4335
4336
4337
4338
4339
4340
4341
4342
4343
4344
4345
4346
4347
4348
4349
4350
4351
4352
4353
4354
4355
4356
4357
4358
4359
4360
4361
4362
4363
4364
4365
4366
4367
4368
4369
4370
4371
4372
4373
4374
4375
4376
4377
4378
4379
4380
4381
4382
4383
4384
4385
4386
4387
4388
4389
4390
4391
4392
4393
4394
4395
4396
4397
4398
4399
4400
4401
4402
4403
4404
4405
4406
4407
4408
4409
4410
4411
4412
4413
4414
4415
4416
4417
4418
4419
4420
4421
4422
4423
4424
4425
4426
4427
4428
4429
4430
4431
4432
4433
4434
4435
4436
4437
4438
4439
4440
4441
4442
4443
4444
4445
4446
4447
4448
4451
4452
4453
4456
4460
4515
4516
4517
4518
4519
4520
4527
4529
4533
4535
4536
4597
4599
4800
4801
4802
4804
4806
4807
4808
4809
4810
4814
4815
4816
4817
4818
4821
4822
4823
4824
4825
4826
4830
4831
4832
4834
4836
4837
4838
4845
4848
4854
4855
4856
4857
4858
4859
4860
4861
4862
4863
4864
4865
4874
4878
4879
4886
4887
4888
4889
4890
4891
4894
4895
4896
4897
4898
4899
4920
4921
4922
4928
4929
4930
4931
4939
4940
4941
4942
4943
4960
4972
4976
4977
4978
5003
5005
5010
5011
5012
5039
5044
5045
5046
5056
5057
5058
5059
5061
5062
5063
5068
5076
6201
6204
6271
6273
6332
6333
6335
6336
6337
6338
6339
6380
6382
6415
6416
6417
6536
6537
6661
6662
6663
6665
6889
6896
6897
6898
6899
6900
6901
6952
6953
6954
6955
6956
6957
6958
6959
6960
6961
6962
6963
6964
6965
6966
6967
6968
6969
6973
7030
7043
7044
7046
7047
7049
7050
7075
7076
7077
7149
7150
7154
7155
7159
7160
7164
7165
7195
7197
7198
7199
7200
7201
7202
7203
7204
7205
7206
7210
7211
7212
)


1819
(
18
21
165
166
167
169
170
172
173
175
176
178
184
186
188
189
201
202
203
222
223
224
225
226
227
228
229
230
231
232
233
241
242
274
275
277
278
280
281
282
283
285
286
288
289
290
291
293
294
295
296
298
299
301
302
303
304
306
307
308
310
311
313
314
316
317
318
319
320
332
334
335
336
337
349
351
534
535
536
537
538
539
540
541
542
543
544
545
546
547
548
691
692
693
694
695
696
697
698
704
706
708
709
710
712
714
715
716
718
719
721
722
724
725
727
728
730
731
733
735
736
737
738
745
746
878
879
880
881
882
883
884
885
973
1030
1031
1032
1033
1034
1035
1036
1037
1038
1039
1040
1041
1042
1043
1044
1045
1046
1047
1048
1049
1050
1051
1052
1053
1054
1055
1056
1057
1058
1059
1060
1061
1062
1063
1064
1065
1067
1069
1081
1082
1083
1084
1085
1086
1090
1091
1092
1110
1111
1112
1113
1114
1115
1116
1117
1118
1119
1120
1121
1122
1123
1124
1125
1126
1127
1128
1129
1130
1131
1132
1133
1134
1135
1136
1137
1138
1139
1140
1141
1142
1143
1144
1145
1146
1147
1148
1149
1150
1151
1152
1153
1154
1155
1156
1157
1158
1159
1160
1161
1162
1163
1164
1165
1166
1167
1168
1169
1170
1171
1172
1173
1174
1175
1176
1177
1178
1179
1180
1181
1182
1183
1184
1185
1186
1187
1188
1196
1198
1207
1208
1209
1210
1211
1212
1214
1218
1219
1220
1238
1239
1240
1241
1242
1243
1244
1245
1246
1247
1248
1249
1250
1251
1252
1253
1254
1255
1256
1257
1258
1259
1260
1261
1262
1263
1264
1265
1268
1269
1270
1271
1272
1273
1274
1275
1276
1277
1278
1279
1285
1286
1287
1288
1289
1290
1291
1292
1293
1294
1295
1296
1297
1298
1299
1300
1301
1314
1315
1316
1317
1318
1319
1320
1321
1322
1323
1324
1325
1326
1327
1328
1329
1330
1334
1335
1336
1337
1338
1339
1340
1341
1342
1343
1357
1358
1359
1360
1362
1363
1364
1365
1366
1367
1368
1369
1370
1371
1372
1373
1374
1375
1376
1377
1378
1379
1380
1381
1382
1383
1384
1385
1386
1388
1389
1390
1391
1392
1393
1409
1410
1411
1412
1413
1414
1420
1425
1426
1427
1428
1433
1434
1435
1437
1438
1439
1440
1441
1442
1443
1444
1445
1446
1454
1455
1456
1457
1458
1459
1468
1469
1470
1475
1476
1477
1480
1481
1482
1483
1488
1489
1516
1517
1518
1519
1524
1525
1526
1528
1530
1532
1534
1537
1538
1540
1541
1542
1543
1544
1545
1546
1547
1558
1560
1561
1562
1566
1567
1568
1569
1570
1571
1572
1573
1574
1575
1576
1577
1578
1579
1580
1581
1582
1583
1584
1585
1586
1587
1588
1589
1590
1591
1592
1593
1594
1595
1596
1597
1600
1601
1604
1605
1608
1609
1610
1611
1612
1613
1614
1615
1616
1617
1618
1619
1620
1621
1622
1623
1624
1625
1626
1627
1628
1629
1630
1631
1632
1633
1634
1635
1636
1637
1655
1656
1657
1658
1659
1660
1661
1662
1663
1664
1665
1666
1667
1668
1669
1670
1671
1672
1673
1674
1675
1676
1677
1678
1679
1680
1681
1682
1683
1684
1685
1686
1687
1688
1694
1695
1696
1697
1698
1699
1700
1701
1702
1703
1704
1705
1706
1707
1708
1709
1710
1711
1712
1713
1714
1715
1716
1717
1718
1719
1720
1721
1722
1723
1724
1725
1726
1727
1728
1729
1732
1733
1734
1735
1736
1737
1738
1739
1740
1741
1742
1743
1744
1745
1746
1747
1748
1749
1750
1751
1752
1753
1754
1755
1756
1757
1758
1759
1760
1761
1762
1763
1764
1765
1766
1767
1768
1769
1770
1771
1772
1773
1774
1775
1776
1777
1778
1779
1780
1781
1782
1783
1784
1785
1787
1788
1791
1794
1795
1796
1797
1798
1799
1800
1801
1802
1803
1809
1821
1822
1823
1824
1825
1826
1827
1828
1829
1830
1838
1839
1840
1841
1842
1843
1844
1845
1846
1847
1848
1849
1858
1859
1860
1861
1862
1863
1864
1865
1866
1867
1868
1869
1870
1871
1872
1873
1874
1875
1876
1877
1878
1879
1880
1881
1882
1883
1884
1885
1886
1887
1890
1891
1892
1893
1894
1895
1896
1897
1898
1899
1900
1901
1902
1903
1904
1905
1906
1907
1908
1909
1910
1911
1912
1913
1914
1915
1916
1917
1918
1919
1920
1921
1932
1933
1934
1935
1936
1937
1938
1939
1940
1941
1942
1943
1944
1945
1946
1947
1948
1949
1950
1951
1952
1953
1954
1955
1956
1957
1958
1959
1960
1961
1962
1963
1964
1965
1966
1967
1968
1969
1970
1971
1976
1977
1978
1979
1980
1981
1982
1983
1984
1985
1986
1987
1988
1989
1990
1991
1992
1993
1994
1995
2088
2089
2090
2091
2092
2093
2095
2103
2105
2106
2107
2108
2109
2110
2111
2112
2113
2114
2117
2118
2119
2120
2121
2122
2130
2131
2132
2133
2134
2135
2138
2139
2140
2149
2150
2151
2153
2161
2189
2190
2191
2214
2217
2218
2229
2270
2316
2317
2318
2319
2341
2342
2344
2685
2686
2697
2698
2865
2866
2867
2868
2869
2870
2871
2872
2906
2908
2909
3081
3082
3083
3084
3085
3086
3087
3088
3089
3090
3091
3092
3093
3094
3095
3096
3097
3098
3099
3100
3101
3102
3103
3104
3105
3106
3107
3108
3109
3110
3111
3112
3113
3114
3115
3116
3117
3118
3119
3120
3121
3122
3123
3124
3125
3126
3127
3128
3129
3130
3131
3132
3133
3134
3135
3136
3137
3138
3139
3140
3141
3142
3143
3144
3145
3146
3147
3148
3149
3150
3151
3152
3153
3154
3155
3156
3157
3158
3159
3160
3161
3162
3163
3164
3165
3166
3167
3168
3169
3170
3171
3172
3173
3174
3175
3176
3177
3178
3179
3180
3181
3182
3183
3184
3185
3186
3187
3188
3189
3190
3191
3192
3193
3194
3195
3196
3197
3198
3199
3200
3201
3202
3203
3204
3205
3206
3207
3208
3209
3210
3211
3212
3213
3214
3215
3216
3217
3218
3219
3220
3221
3222
3223
3224
3225
3226
3227
3228
3229
3230
3231
3232
3233
3234
3235
3236
3237
3238
3239
3240
3241
3242
3243
3244
3245
3246
3247
3248
3249
3250
3251
3252
3253
3254
3255
3256
3257
3258
3259
3260
3261
3262
3263
3264
3265
3266
3267
3268
3269
3270
3271
3272
3273
3274
3275
3276
3277
3278
3279
3280
3281
3282
3283
3284
3285
3286
3287
3288
3289
3290
3291
3292
3293
3294
3295
3296
3297
3298
3299
3300
3301
3302
3303
3304
3305
3306
3307
3308
3309
3310
3311
3312
3313
3314
3315
3316
3317
3318
3319
3320
3321
3322
3323
3324
3325
3326
3327
3328
3329
3330
3331
3332
3333
3334
3335
3336
3337
3338
3339
3340
3341
3342
3343
3344
3345
3346
3347
3348
3349
3350
3351
3352
3353
3354
3355
3356
3357
3358
3359
3360
3361
3362
3363
3364
3365
3366
3367
3368
3369
3370
3371
3372
3373
3374
3375
3376
3377
3378
3380
3381
3384
3385
3386
3389
3390
3448
3450
3451
3452
3453
3454
3455
3456
3536
3537
3538
3539
3540
3541
3542
3543
3548
3549
3550
3551
3554
3555
3556
3557
3558
3559
3560
3561
3562
3563
3564
3565
3566
3567
3572
3573
3574
3575
3578
3579
3580
3581
3712
3713
3759
3760
3761
3762
3763
3764
3774
3775
3776
3777
3784
3785
3786
3787
3788
3789
3790
3791
3793
3795
3864
3866
3867
3871
3872
3945
3946
3947
3948
3949
3950
3951
3952
4028
4029
4030
4031
4032
4033
4034
4035
4036
4037
4038
4039
4040
4041
4042
4043
4044
4045
4046
4047
4048
4049
4050
4051
4052
4053
4054
4055
4056
4057
4058
4059
4060
4061
4062
4063
4064
4065
4066
4067
4068
4069
4070
4071
4072
4073
4074
4075
4076
4077
4078
4079
4080
4081
4082
4083
4084
4085
4086
4087
4088
4089
4090
4091
4092
4093
4094
4095
4096
4097
4098
4099
4100
4101
4102
4103
4104
4105
4106
4107
4108
4109
4110
4111
4112
4113
4114
4115
4116
4117
4118
4119
4120
4121
4122
4123
4124
4125
4126
4127
4128
4129
4130
4131
4132
4133
4134
4135
4136
4137
4138
4139
4140
4141
4142
4143
4144
4145
4146
4147
4148
4149
4150
4151
4152
4153
4154
4155
4156
4157
4158
4159
4160
4161
4162
4163
4164
4165
4166
4167
4168
4169
4170
4171
4172
4173
4174
4175
4176
4177
4178
4179
4180
4181
4182
4183
4184
4185
4186
4187
4188
4189
4190
4191
4192
4193
4194
4195
4196
4197
4198
4199
4200
4201
4202
4203
4204
4205
4206
4207
4208
4209
4210
4211
4212
4213
4214
4215
4216
4217
4218
4219
4220
4221
4222
4223
4224
4225
4226
4227
4228
4229
4230
4231
4232
4233
4234
4235
4236
4237
4238
4239
4240
4241
4242
4243
4244
4245
4246
4247
4248
4249
4250
4251
4252
4253
4254
4255
4256
4257
4258
4259
4260
4261
4262
4263
4264
4265
4266
4267
4268
4269
4270
4271
4272
4273
4274
4275
4276
4277
4278
4279
4280
4281
4282
4283
4284
4285
4286
4287
4288
4289
4290
4291
4292
4293
4294
4295
4296
4297
4298
4299
4300
4301
4302
4303
4304
4305
4306
4307
4308
4309
4310
4311
4312
4313
4314
4315
4316
4317
4318
4319
4320
4321
4322
4323
4324
4325
4326
4327
4328
4329
4330
4331
4332
4333
4334
4335
4336
4337
4338
4339
4340
4341
4342
4343
4344
4345
4346
4347
4348
4349
4350
4351
4352
4353
4354
4355
4356
4357
4358
4359
4360
4361
4362
4363
4364
4365
4366
4367
4368
4369
4370
4371
4372
4373
4374
4375
4376
4377
4378
4379
4380
4381
4382
4383
4384
4385
4386
4387
4388
4389
4390
4391
4392
4393
4394
4395
4396
4397
4398
4399
4400
4401
4402
4403
4404
4405
4406
4407
4408
4409
4410
4411
4412
4413
4414
4415
4416
4417
4418
4419
4420
4421
4422
4423
4424
4425
4426
4427
4428
4429
4430
4431
4432
4433
4434
4435
4436
4437
4438
4439
4440
4441
4442
4443
4444
4445
4446
4447
4448
4450
4451
4452
4453
4454
4456
4460
4461
4517
4518
4519
4520
4526
4527
4533
4535
4536
4800
4802
4804
4806
4814
4815
4825
4830
4831
4832
4834
4840
4848
4854
4855
4856
4857
4858
4859
4866
4886
4887
4888
4889
4890
4891
4920
4922
4939
4940
4941
4942
4943
4972
4976
4978
5003
5010
5011
5012
5039
5044
5045
5046
5056
5057
5058
5059
5068
6201
6204
6205
6271
6273
6332
6333
6335
6336
6337
6339
6380
6382
6412
6414
6415
6416
6417
6661
6662
6663
6664
6665
6666
6889
6898
6899
6900
6901
6952
6953
6954
6955
6956
6957
6961
6962
6964
6965
6966
6967
6968
6969
6972
6973
6974
6975
7043
7044
7049
7050
7052
7053
7075
7076
7077
7149
7150
7154
7159
7160
7164
7165
7198
7199
7201
7202
7203
7204
7205
7206
7207
7208
7210
7211
7212