/*--------------------------------*- C++ -*----------------------------------*\
  =========                 |
  \\      /  F ield         | OpenFOAM: The Open Source CFD Toolbox
   \\    /   O peration     | Website:  https://openfoam.org
    \\  /    A nd           | Version:  8
     \\/     M anipulation  |
\*---------------------------------------------------------------------------*/
/*   Windows 32 and 64 bit porting by blueCAPE: http://www.bluecape.com.pt   *\
|  Based on Windows porting (2.0.x v4) by Symscape: http://www.symscape.com   |
\*---------------------------------------------------------------------------*/
FoamFile
{
    version     2.0;
    format      ascii;
    class       scalarListList;
    location    "constant/vegetation";
    object      kcLAIboundary;
}
// * * * * * * * * * * * * * * * * * * * * * * * * * * * * * * * * * * * * * //


5
(

357
(
2.8352383
3.4326288
0.0090876601
0.13415115
0.67367307
0.00091541169
0.12550229
0.0085058977
3.6360643
2.8476331
3.5176081
0.68496037
0.938984
1.4293416
0.29246702
3.4659905e-06
1.5773911e-05
0.019947439
1.1607922
0.097405729
1.3531989
2.8528632
1.841108
3.0785136
1.7564191
0.50681625
0.58989551
3.1076017
2.6300396
2.274443
2.4483317
2.8211258
3.6947579
3.4268535
2.8337836
3.495836
1.0857938
3.4775953
2.292339
0.59133921
2.6274465
0.45613583
0.72661008
0.11305877
0
2.4621747
1.5145957
0
0.0040514813
0.0015866918
0.00068934702
0.0046058539
0.0026155364
0.000226735
0.00033782165
0.00020782263
0.0007380885
0.0018756782
0.0029974948
0.00048260211
0.00086532419
0.0030806274
0.00033836955
0.00015108151
0.00020737312
0.00031462062
1.7027096e-06
8.1500691e-05
7.2424265e-06
1.9485653e-05
1.3111783e-05
1.3126879e-05
6.7553072e-06
1.1971952e-05
1.9560262e-06
3.4644013e-07
5.9624884e-05
6.7950246e-06
0.011650543
0.016345852
0.0080726397
0.0047324503
0.0053080312
0.0076610329
0.0077424785
0.0053708089
0.011476832
0.016337691
0.016077546
0.010670235
0.026270242
0.021261219
0.0023528562
0.0052386875
0
0.0029299724
0
0
0
0.0012349267
8.5802431e-05
0.00032125138
0
0
0
0
3.7679152e-05
0
0.015222588
0.01145146
0.014721466
0.011917424
0.0051997996
0.0081320529
0.0085713419
0.0047839871
0
0
0
0
0
0
0.00036014161
0
0.015720989
0.01237536
0.0056082136
0.0090025388
0
0
0.019023783
0.022248461
0.0019831746
0
0
0
0.010516229
0.012648661
0.009616178
0.0079595706
0
0
0
0
0.0076750543
0.0043519536
0.0034724092
0.006038137
0
0
7.2637846e-06
2.7640763e-06
4.0837602e-06
5.1143098e-06
0.00027270107
1.1343685e-05
0.00087391778
8.0208307e-06
1.4776805e-05
0.0016681688
0
1.0214523e-06
0
1.5223335e-06
0
0
0
0
0
0
0
0
0
0
0
0
0.00021422668
0.00033544053
0.0032519493
0.0011846659
9.7148622e-05
6.7884113e-07
9.9519299e-06
5.2970621e-06
0.018444554
0.019534045
0.017884111
0.021488426
0.016047035
0.011648781
0.0053937195
0.007610906
0.020628364
0.024183308
0.0018075091
0
0.0014140973
0
0
0
0
0
0
0
0
0
0
0
0
0
0
0
0
0
0
0
0
0
0
0
0
0
0
0
0
0
0
0
0
0
0
0
0
0
0
0
0
0
0
0
0
0
0
0
0.025331076
0
0
0
0
0
0
0
0
0
0
0
0
0
0
0
0
0.00011418152
1.4552923e-05
4.3039577e-05
0.00012569073
1.2553389e-06
2.8042979e-06
2.4463562e-07
1.3712672e-05
7.4069826e-06
4.9031977e-06
3.4213611e-06
1.4468391e-06
0.00021731235
0.00032500562
0.00040388784
0.00020744487
0.0034003537
0.0015606607
0.001814987
0.0034110227
0.015391233
0.014270915
0.011406211
0.010605584
0.0053078487
0.0075878991
0.0073972391
0.0049558655
0
0
0
0
0
0.0010066831
0.00061691136
0
0
0
0
0
0
0
0
0
0
0
0
0
0
0
0
0
0
0
0
0
0
0
0
0
0
0
0
0
0
0
0
0
3.1565442e-07
3.9601474e-13
2.6512992e-06
1.6045265e-05
0
0
0
0
0
0
0
0
0
0
0
0
0.3525237
2.2813256
1.5386647
0.16748193
0.6054315
0.87567103
0.28387353
3.4341692
0.95564199
0.24629859
0.90872923
0.49502668
)


357
(
2.9875881
3.6321441
0.6011247
2.1673255
2.7251248
0.46300995
0.42741423
0.95115706
3.3477471
2.8800462
3.0948176
0.4665857
2.5477449
0.85017558
1.7292942
0.12831067
0.050619922
1.456358
1.5101349
0.54622454
2.2726794
3.6025467
2.6904268
1.6238631
1.0073417
0.024529904
0.59593111
3.2012231
3.0660736
2.3831846
2.7125683
3.333715
2.9093313
3.1700311
2.1430182
2.576274
0.91594942
2.3220754
1.0822787
0.34005449
1.8428575
0.10438397
0.46219004
0.12924479
0.015433534
1.6170943
0.94569439
0
0.32987668
0.15297356
0.074466223
0.39868227
0.19863039
0.041661082
0.079983299
0.049579617
0.13835577
0.27892065
0.25448376
0.14731955
0.13756318
0.24912161
0.082746856
0.051644646
0.051315337
0.098497829
0.002654239
0.021002247
0.015793264
0.053776423
0.029839664
0.03513417
0.014239398
0.026143482
0.0032123887
0.0066783382
0.017030005
0.01643122
0.59610673
0.70252048
0.5252543
0.45100025
0.37584895
0.62980879
0.4925856
0.36719605
0.61476294
0.93279469
0.71969838
0.80150514
0.93780812
0.82095949
0.013072672
0.037957242
0
0.040568007
0
0
0
0.012522267
0
0.00065264802
0.017405195
0.034204063
0
0
0
0
0.29202788
0.11244981
0.27448263
0.10815266
0.075594892
0.095146637
0.091597736
0.078374119
0.0036828987
0
0.0032030871
0
0.0064519191
0
0.0033764403
0.0096122532
0.31006117
0.11076354
0.072741825
0.087996584
0.003377168
0
0.50580087
0.6959464
0.055048602
0.038601501
0.012765547
0.024507045
0.1097317
0.23224212
0.168335
0.079173455
0
0.0018642129
0.00050229112
0
0.098687787
0.081111919
0.069466966
0.07569914
0
0.00015625333
0
0
0
0
0.0086737389
0.016181177
0.05047454
0.004351695
0.028861764
0.11524831
0
0
0
0
0
0
0
0
0
0
0
0
0
0
0
0
0.045460592
0.071571096
0.22955705
0.13208796
0.021268027
0.00055795579
0.019163869
0.009963397
0.48156688
0.61613432
0.45907894
0.65973933
0.63232167
0.53510042
0.33353035
0.44304346
0.73763817
0.81673906
0.060169435
0.046552395
0.062171948
0.04532738
0.01610486
0.031517484
0.030879725
0.017067667
0
0
0
0
0
0
0
0
0
0
0
0
0
0
0
0
0
0
0
0
0
0
0
0
0
0
0
0
0
0
0
0
0
0
0
0
0
0
0
0
0.0018131938
0.0038293864
0.87679684
0
0
0
0
0
0
0
0
0
0
0
0
0
0
0
0
0.018767544
0.0030439175
0.0033977702
0.010317923
0
0
0
0
0.01077804
0.0031462738
0.0049941959
0.001003319
0.036249107
0.055751758
0.032907764
0.018705024
0.1900095
0.11415779
0.072223829
0.12159255
0.52491299
0.38863832
0.43899934
0.30668926
0.27239284
0.35785156
0.24240225
0.17424425
0.031811306
0.016540765
0.015484162
0.032222059
0.047659395
0.064099685
0.061202077
0.048339229
0
0
0
0
0
0
0
0
0
0
0
0
0
0
0
0
0
0
0
0
0
0
0
0
0
0
0
0
0
0
0
0
0
0
0
0
0
0
0
0
0
0
0
0
0
0
0
0
0.41744347
2.4527204
2.0730003
0.17239445
0.89294888
1.2563199
0.36925086
2.8493686
0.79403543
0.21586633
0.75468531
0.53202763
)


357
(
2.849557
3.025447
0.69864865
2.7003417
3.1853757
1.9368726
0.59905863
2.4521739
2.5191169
2.6515814
1.9228708
0.13647564
2.887414
0.077761002
1.854188
0.85364863
0.27189678
2.7509144
1.3099038
1.2080737
2.4693706
3.1967637
2.9549947
1.6371911
1.0348025
0.41255883
0.56332186
2.9974976
3.0990139
1.654417
2.7050456
2.6711035
2.1043093
2.5778881
1.0711458
1.6615108
0.65073549
1.8571912
0.66183344
0.17297333
1.3757927
0.041289688
0.41679975
0.044267392
0.10458196
1.2985722
0.6265557
0
0.62964242
0.20589771
0.16580333
0.6291246
0.41849019
0.14946581
0.75413243
0.52890356
1.1127773
1.7361589
1.4416008
1.4008006
1.0830754
1.4125423
0.7845512
0.73356491
0.55703621
1.0646424
0.13583371
0.32731473
0.069738137
0.16372655
0.11395758
0.12516348
0.06402128
0.10432962
0.14358614
0.4135609
0.31532967
0.10282516
2.09848
2.2528255
2.0036546
2.0720932
1.7677738
2.359381
1.9464033
1.7425813
2.132083
2.6274053
2.2794153
2.4935645
2.4516786
2.3823816
0.67114634
1.0548649
0
0.5724134
0
0
0
0.32834198
0.072544721
0.23951963
0.11457919
0.19048774
0
0
0.030779345
0
1.643728
1.3214164
1.6285502
1.3353228
0.71379945
1.0114072
1.0248586
0.70047163
0.047490086
0
0.052544923
0
0.03755517
0
0.13131264
0.04080544
1.6590774
1.3488788
0.68372234
1.0295309
0.036274474
0
1.9111441
2.1454504
0.36549335
0.20493473
0.083514363
0.13973468
1.3056544
1.6110147
1.4336976
1.1706364
0
0.048762217
0.045550677
0
0.99715941
0.6862218
0.6322643
0.91580386
0.0009034297
0.00091238211
0.075018718
0.029954627
0.048651717
0.048322815
0.10498078
0.097747867
0.14588047
0.0699939
0.12659518
0.27598036
0.0071713322
0.015245993
0.004302344
0.026021132
0.0044440279
0.00099088745
0.0019676455
0.0027808091
0
0
0
0
0.00044362248
0.0003439043
2.6656566e-05
0.0014473383
0.45694719
0.67198062
1.3272743
0.99940701
0.28667851
0.12635703
0.085558913
0.046787487
1.8935378
2.0852769
1.8785953
2.1116567
2.151775
1.9957607
1.6556346
1.8402439
2.2592859
2.3037118
0.40217761
0.26126182
0.3890082
0.25706619
0.11083324
0.19035544
0.18315572
0.12078294
0
0
0
0
0
0
0
0
0
0
0
0
0
0
0
0
0
0
0
0
0
0
0
0
0
0
0
0
0
0
0
0
0
0
0
0
0
0
0
0
0.0089611286
0.015094202
2.3681355
0
0
0
0
0
0
0
0
0
0
0
0
0
0
0
0
0.20974739
0.097874352
0.059395391
0.11561434
0.010166866
0.02085215
0.012785511
0.017923053
0.059086076
0.03482805
0.021357029
0.0045278048
0.33145659
0.54503343
0.39805456
0.17095681
1.1954531
0.86999235
0.69368233
1.0264305
2.0062396
1.8353523
1.8439343
1.6485507
1.517974
1.6816148
1.4834752
1.3008714
0.19174667
0.11956638
0.11642493
0.1941196
0.26522555
0.37521973
0.36172638
0.2676017
0
0
0
0
0
0
0
0
0
0
0
0
0
0
0
0
0
0
0
0
0
0
0
0
0
0
0
0
0
0
0
0
0.0031950141
4.1699217e-05
0.0047999027
0.014946395
0.00011857921
7.9169547e-05
0.00045676037
0.00039945949
0
0
0
0
0.00011454396
6.7062131e-05
0.00015686768
0.00030424858
0.49552562
2.5016644
2.2038998
0.19582564
1.1216702
1.8261941
0.51025397
2.0441083
0.63053086
0.22009902
0.57031999
0.5640354
)


357
(
3.5964208
3.5377364
0.38716346
2.4382054
3.0395952
2.5875233
0.16851274
2.8575484
3.6861064
3.3178402
2.4745891
0.089240502
2.804419
0.1737632
0.73734656
1.5666024
1.1596619
2.989428
1.3046276
1.1911682
2.5557147
3.2986947
3.0965153
2.5338428
1000
1000
0.33878633
3.8591986
3.5587631
2.4608213
3.1184989
2.3773548
3.6328762
3.9769992
1.0595667
2.4526267
1.0712883
2.9300973
1.119565
1000
2.8291712
0.26068019
0.43515934
1000
1000
2.8444683
1.748602
0
0.3956155
0.25748509
0.19928953
0.43280761
0.29936609
0.16982296
2.0591844
1.7914433
2.3378181
2.6913806
2.5441983
2.4331511
2.3276655
2.5296051
2.0687456
1.8619901
1.803765
2.1471559
1.0058095
1.4683112
0.54037692
0.1209784
0.080278454
0.4973693
0.53636461
0.068902875
1.0185995
1.4739596
1.4129562
0.98586893
2.7945277
2.8036541
2.7324092
2.7757609
2.6311308
2.8603953
2.7069945
2.6180872
2.8077488
2.9545887
2.8180898
2.9451813
2.8302963
2.8148954
1.9290876
2.1953416
0.082681487
1.7112645
0.010255885
0.023931749
0.032415021
1.3429783
0.48727968
1.2102082
0.53621222
1.1948196
0
0
0.23403689
0
2.5098574
2.3687046
2.4824665
2.3723678
1.7644385
2.1105972
2.072969
1.8510267
0.085577306
0.076653793
0.11302216
0.057682845
0.32053792
0
0.80221505
0.76735772
2.3074641
2.1194318
1.4820007
1.8074908
0.058247755
0.038574444
2.4820185
2.6415559
1.1517283
0.83442612
0.29150851
0.55162049
2.3263916
2.4526547
2.4182269
2.275445
0.077101667
0.11031534
0.10729896
0.073610644
2.072199
1.8155827
1.7728735
2.0349217
0.044358414
0.028368798
0.098640283
0.027637574
0.07080797
0.046336604
0.14176575
0.10913
0.18698051
0.077211077
0.13984377
0.23348581
0.034403606
0.017180948
0.0087636681
0.051585794
0.020470545
0.00048209667
0.0027831294
0.01274279
0
0
0
0
0.0010920864
0
0
0.0062832968
1.7073195
1.9930375
2.4747981
2.2751965
1.3854528
0.94990089
0.076531344
0.51588222
2.6147251
2.6947238
2.5917497
2.7156839
2.7634675
2.7489007
2.5690099
2.6622532
2.7772047
2.7920974
1.4511609
1.2565198
1.5905542
1.0998777
0.38912228
0.86410307
0.73322337
0.47003476
0
0
0
0
0
0
0
0
0
0
0
0
0
0
0
0
0
0
0
0
0
0
0
0
0
0
0
0
0
0
0
0
0.0084773402
0.042518995
0.032016163
0.01042699
0
0
0
0
0.14680292
0.38068496
2.7356245
0
0
0
0
0
0
0
0
0
0
0.0058822737
0.02113098
0
0
0
0
1.210551
0.84000535
0.69165892
0.97111272
0.073861996
0.088791074
0.29870872
0.22401436
0.096771442
0.10302325
0.46989522
0.4051005
1.5333991
1.8478604
1.6720893
1.3080036
2.3601994
2.1588497
2.0075647
2.2144889
2.6744788
2.567191
2.6548811
2.5359232
2.4637939
2.5662943
2.4461975
2.3259273
0.83477275
0.44555237
0.41284794
0.81059277
1.2220947
1.5580473
1.5278235
1.1785507
0
0
0
0
0
0
0
0
0
0
0
0
0
0
0
0
0
0
0
0
0
0
0
0
0.043894527
0.010276161
0.009635585
0.042412674
0
0
0
0
0.059645769
0.033271752
0.082416175
0.16245059
0
0
0
0
0
0
0
0
0
0
0
0
0.47838763
2.5493372
2.0425502
0.26251383
1.4281597
2.150127
0.68065229
3.1183171
0.44736985
0.21358686
0.51525223
0.61009475
)


357
(
1000
1000
1000
1000
1000
1000
1000
1000
1000
1000
1000
1000
1000
1000
1000
1000
1000
1000
1000
1000
1000
1000
1000
1000
1000
1000
1000
1000
1000
1000
1000
1000
1000
1000
1000
1000
1000
1000
1000
1000
1000
1000
1000
1000
1000
1000
1000
0
0.035702542
0.45293054
0.40089482
1000
0.040192251
0.4510356
3.5452559
3.1528366
3.7067536
4.2338477
3.8273241
4.1082571
3.6657988
3.786334
3.5862079
3.4875918
3.1943026
3.9826317
2.055971
2.6070425
1.4941162
0.87740936
0.93782126
1.3097442
1.5058416
0.9797175
2.065248
2.7383726
2.5497218
1.9831899
3.8170386
3.7796865
3.8964736
4.3468435
3.9451679
4.3036551
3.8590831
3.9033364
3.8620361
4.2215688
3.8270164
4.2615219
3.2637578
3.5513196
2.5937731
2.805447
0.69211611
2.4459526
0.099584342
0.17992033
0.47959722
2.2913354
1.7811344
2.2992745
1.7844126
2.1492257
0.026608943
0.0090584367
1.2670118
0.098854342
2.6467998
2.5956395
2.8010972
2.441182
2.0100301
2.4038915
2.2251133
2.2129428
0.60674412
0.34712924
0.82589674
0.23813753
1.3477227
0.25847204
2.017767
1.8826535
2.4978459
2.2909002
1.812736
2.0512061
0.39653686
0.13482649
2.6114409
2.7181776
1.5184351
1.2117529
0.65178139
0.90939186
2.6895155
2.9000591
2.909132
2.6997399
0.39018796
0.91761644
0.94583919
0.39130953
2.5070458
2.323107
2.3331041
2.5242211
0.76866191
0.33250163
0.053950625
0.3474012
0.046129539
0.41328593
0.055080117
0.46186328
0.054477033
0.43799962
0.47144663
0.048887124
0.019803057
0.25290227
0.16355308
0.033370343
0.01117937
0.062407614
0.10363215
0.0063649403
0
0.0013658194
0.0048779365
0
0
0.023865084
0.0087176369
0.0016363759
3.0629437
3.4249232
3.6623237
3.5435271
2.5730031
2.078671
1.0172413
1.5627611
2.8201968
3.2492908
3.0353052
2.9806022
3.6530662
3.6922495
3.7801943
3.7353606
3.4277349
3.1211192
1.7747521
1.8702368
2.0374949
1.536715
0.96888826
1.7072492
1.3029762
1.298251
0
0
0
0
0
0.00031118569
0
0.00016264651
0
0
0
2.8711694e-05
0
0
0
0
0
0
0
0
0
0
0
0
0
0
0
0
0.0045109009
0
0
0.0076600802
0.071568329
0.20108312
0.13678291
0.10532234
0
0
0
0
0.84758723
1.5011801
2.8414827
0
0
0
0
0
0
0
0
0
0
0.039535144
0.075086441
0.0021768596
0
0
0
2.4136802
1.9807431
1.8685134
2.2156418
0.76145293
0.89701519
1.3852519
1.1884557
0.9897298
0.94514102
1.5130518
1.4655411
2.8414532
3.1715681
2.8410815
2.5492028
3.4171658
3.2941861
2.9640571
3.0977316
3.4384243
3.1801141
3.4721327
3.1938601
3.5411003
3.5080905
3.2243417
3.2232653
1.8941454
1.444676
1.4622424
1.9249337
2.033061
2.1724153
2.1917191
2.0532823
0
0
0.0047920754
0.0034596468
0
0
0.011173882
0.017409718
0
0
0.00056460197
0.0020963609
0.00092546888
0.00050022428
0.00085847394
0.001587897
0
9.0241664e-05
0
0.00018074164
0
0.010442232
0
0.017234097
0.22281468
0.11694105
0.12205183
0.22769399
0
0
0.01708925
0.021681861
0.56523559
0.37129906
0.58331156
0.8975469
0.1484819
0.24058248
0.38720639
0.23590492
0.0038387015
0.013552415
0.022901998
0.0060630366
0.059115422
0.023593545
0.038922708
0.097733209
0.49247523
1000
1.7956364
0.3505175
1.6728648
2.6542818
0.94279379
1000
0.36404741
0.22851802
1000
0.71186006
)

)


// ************************************************************************* //
