/*--------------------------------*- C++ -*----------------------------------*\
  =========                 |
  \\      /  F ield         | OpenFOAM: The Open Source CFD Toolbox
   \\    /   O peration     | Website:  https://openfoam.org
    \\  /    A nd           | Version:  8
     \\/     M anipulation  |
\*---------------------------------------------------------------------------*/
/*   Windows 32 and 64 bit porting by blueCAPE: http://www.bluecape.com.pt   *\
|  Based on Windows porting (2.0.x v4) by Symscape: http://www.symscape.com   |
\*---------------------------------------------------------------------------*/
FoamFile
{
    version     2.0;
    format      ascii;
    class       scalarListList;
    location    "constant/vegetation";
    object      solarLoadFineFaces;
}
// * * * * * * * * * * * * * * * * * * * * * * * * * * * * * * * * * * * * * //


5
(

1190
(
42.096015
23.163148
23.163148
42.096015
717.08284
717.08284
717.08284
717.08284
717.08284
717.08284
18.899341
41.577463
21.276076
41.577463
717.08284
717.08284
717.08284
717.08284
717.08284
171.71734
717.08284
717.08284
717.08284
717.08284
717.08284
717.08284
717.08284
717.08284
717.08284
41.360577
113.75914
113.75914
42.096015
33.005617
123.81299
123.81299
171.71734
717.08284
33.005617
123.81299
717.08284
717.08284
717.08284
717.08284
717.08284
717.08284
717.08284
32.059376
51.684182
717.08284
73.754969
61.98297
61.98297
42.694306
42.694306
42.694306
23.163148
23.163148
23.163148
61.98297
61.98297
42.096015
17.821997
23.297309
41.577463
42.157296
42.157296
21.744381
717.08284
717.08284
717.08284
717.08284
717.08284
365.59213
717.08284
280.39726
717.08284
280.39726
717.08284
717.08284
717.08284
42.096015
32.059376
32.059376
22.144653
21.744381
72.446791
72.446791
717.08284
717.08284
51.818378
717.08284
717.08284
717.08284
717.08284
717.08284
717.08284
717.08284
717.08284
32.059376
18.899341
18.899341
18.899341
41.577463
41.577463
41.577463
73.754969
73.754969
22.144653
33.005617
61.130851
717.08284
61.130851
61.130851
431.9782
17.821997
17.821997
17.821997
23.297309
17.821997
23.297309
23.297309
23.297309
41.577463
157.68442
73.754969
73.754969
717.08284
73.754969
157.68442
224.61755
73.754969
717.08284
17.821997
22.144653
22.144653
17.821997
157.68442
157.68442
717.08284
51.818378
51.818378
51.818378
23.163148
42.694306
42.694306
717.08284
717.08284
717.08284
717.08284
717.08284
717.08284
717.08284
717.08284
717.08284
717.08284
717.08284
717.08284
717.08284
21.276076
21.276076
21.276076
717.08284
717.08284
717.08284
717.08284
717.08284
535.24487
365.59213
717.08284
717.08284
717.08284
42.694306
171.71734
717.08284
717.08284
717.08284
717.08284
717.08284
717.08284
717.08284
717.08284
717.08284
717.08284
185.30303
717.08284
717.08284
41.360577
41.360577
41.360577
113.75914
51.684182
185.30303
51.684182
51.684182
113.75914
171.71734
42.157296
42.157296
72.446791
72.446791
171.71734
33.005617
33.005617
33.005617
717.08284
717.08284
717.08284
717.08284
717.08284
51.684182
21.276076
21.276076
21.744381
21.744381
33.005617
22.144653
717.08284
717.08284
717.08284
717.08284
717.08284
717.08284
717.08284
717.08284
717.08284
717.08284
717.08284
717.08284
717.08284
717.08284
717.08284
717.08284
717.08284
717.08284
717.08284
717.08284
717.08284
717.08284
717.08284
717.08284
717.08284
80.639504
80.639504
80.639504
79.704411
80.639504
80.639504
80.639504
80.639504
80.639504
80.639504
80.639504
80.639504
80.639504
80.639504
80.639504
80.639504
80.639504
80.639504
80.639504
80.639504
80.639504
80.639504
80.639504
80.639504
80.639504
80.639504
80.639504
80.639504
80.639504
80.639504
80.639504
80.639504
80.639504
80.639504
80.639504
80.639504
80.639504
80.639504
80.639504
80.639504
80.639504
80.639504
80.639504
80.639504
80.639504
80.639504
80.639504
80.639504
80.639504
80.639504
80.639504
80.639504
80.639504
80.639504
80.639504
80.639504
80.639504
80.639504
80.639504
80.639504
80.639504
80.639504
80.639504
80.639504
80.639504
80.639504
80.639504
80.639504
80.639504
80.639504
80.639504
80.639504
80.639504
80.639504
80.639504
80.639504
80.639504
80.639504
80.639504
80.639504
80.639504
80.639504
80.639504
80.639504
80.639504
80.639504
80.639504
80.639504
80.639504
80.639504
80.639504
80.639504
80.639504
80.639504
80.639504
80.639504
80.639504
80.639504
80.639504
80.639504
80.639504
80.639504
80.639504
80.639504
80.639504
80.639504
80.639504
80.639504
80.639504
80.639504
80.639504
80.639504
80.639504
80.639504
80.639504
80.639504
80.639504
80.639504
80.639504
80.639504
80.639504
80.639504
80.639504
80.639504
80.639504
80.639504
80.639504
80.639504
80.639504
80.639504
80.639504
80.639504
80.639504
80.639504
80.639504
80.639504
80.639504
80.639504
80.639504
80.639504
80.639504
80.639504
80.639504
80.639504
80.639504
80.639504
80.639504
80.639504
80.639504
80.639504
80.639504
80.639504
80.639504
80.639504
80.639504
80.639504
80.639504
80.639504
80.639504
80.639504
80.639504
80.639504
80.639504
80.639504
80.639504
80.639504
80.639504
80.639504
80.639504
80.639504
80.639504
80.639504
80.639504
80.639504
80.639504
80.639504
80.639504
80.639504
80.639504
80.639504
80.639504
80.639504
80.639504
80.639504
80.639504
80.639504
80.639504
80.639504
80.639504
80.639504
80.639504
80.639504
80.639504
80.639504
80.639504
80.639504
80.639504
80.639504
80.639504
80.639504
80.639504
80.639504
80.639504
80.639504
80.639504
80.639504
80.639504
80.639504
80.639504
80.639504
80.639504
80.639504
80.639504
80.639504
80.639504
80.639504
80.639504
80.639504
80.639504
80.639504
80.639504
80.639504
80.639504
80.639504
80.639504
80.639504
80.639504
80.639504
80.639504
80.639504
80.639504
80.639504
80.639504
80.639504
80.639504
80.639504
80.639504
80.639504
80.639504
80.639504
80.639504
80.639504
80.639504
80.639504
80.639504
80.639504
80.639504
80.639504
80.639504
80.639504
80.639504
80.639504
80.639504
80.639504
80.639504
80.639504
80.639504
80.639504
80.639504
80.639504
80.639504
80.639504
80.639504
80.639504
80.639504
80.639504
80.639504
80.639504
80.639504
80.639504
80.639504
80.639504
80.639504
80.639504
80.639504
80.639504
80.639504
80.639504
80.639504
80.639504
80.639504
80.639504
80.639504
80.639504
80.639504
80.639504
80.639504
80.639504
80.639504
80.639504
80.639504
80.639504
80.639504
80.639504
80.639504
80.639504
80.639504
47.076138
0
0
0
0
193.08313
125.08082
0
0
0
0
0
0
38.46117
0
66.196827
0
0
0
0
386.11385
237.53271
0
58.048648
235.72076
0
0
0
376.68932
0
0
0
0
529.35035
743.88607
583.72619
455.70568
0
3.5116316
9.7826256
0
63.849624
0
244.88393
182.06149
197.38466
116.08649
141.32453
0
0
0
0
0
576.88482
503.91615
0
474.33397
0
0
0
0
0
0
0
0
0
0
3.6039881
0
575.89227
0
0
0
0
0
0
0
0
0
0
0
0
0
0
30.733499
53.808089
110.86347
125.74012
53.552912
53.817719
0
0
0
0
0
0
0
0
0
0
204.22012
2.0498668
0
0
0
0
132.61435
114.43872
144.21828
185.07041
71.577549
126.90992
0
0
0
0
0
0
729.55258
235.23696
116.69616
182.26962
480.355
0
0
0
0
411.81393
430.76507
0
0
0
0
0
0
0
0
0
0
654.87156
637.39983
677.74806
694.44801
697.81532
702.9789
549.51058
650.22073
498.10993
539.90455
636.43018
726.04463
0
29.345995
0
101.98955
108.15918
175.99417
178.43438
99.715844
243.31087
0
0
0
0
0
396.379
379.21047
446.15444
286.47566
410.84037
421.01855
290.74697
230.51958
267.14988
77.827641
145.27086
146.47787
159.46092
132.47189
170.25635
157.57274
170.41571
157.57764
297.80913
443.47138
447.36881
447.37373
432.83203
0
0
0
0
0
0
0
0
0
0
0
0
0
0
0
0
0
0
0
0
0
0
0
0
0
0
42.377508
11.784068
0
0
0
0
0
244.07338
249.14323
139.76303
286.10273
0
100.91902
0
0
0
0
17.707022
147.56985
132.47151
31.533882
0
0
157.568
157.56658
40.668454
14.864018
11.714019
170.93625
28.890939
0
0
0
0
0
439.96408
424.01194
482.51525
431.8675
673.97875
719.70404
546.09354
487.52623
466.49425
516.01198
251.51028
392.30155
286.09775
698.23526
662.26419
587.56672
689.14901
718.32887
700.78932
211.11948
189.96157
29.977389
22.168447
28.489352
0
0
90.802058
71.374695
32.323053
22.170518
0
28.482648
0
0
0
52.675481
218.36211
113.08606
21.436924
0.58297975
14.687014
91.0429
216.24203
0
313.24156
399.89458
539.94735
0
0
0
416.96699
0
0
576.72491
578.34766
653.18533
746.7932
751.95979
0
0
0
0
0
0
0
0
0
0
248.38558
188.89729
0
54.49527
95.518722
239.69547
196.65731
0
0
0
0
0
0
0
0
0
57.227449
0
60.73451
56.145931
110.67075
244.85448
372.55274
19.539479
104.42949
121.45103
112.96613
182.05663
370.3215
352.91439
28.489494
174.18759
174.97123
295.11599
298.24172
0
0
0
0
0
303.76528
463.87823
238.96943
434.32256
249.01438
148.35518
160.07516
294.87674
306.41816
309.86081
444.97022
0
0
0
0
139.75358
0
0
0
173.84819
160.08906
0
557.34458
665.54885
649.85553
0
0
0
0
0
29.425945
0
0
0
0
0
0
0
0
0
0
0
0
0
0
0
0
57.597769
92.674134
85.076395
95.658454
239.71974
60.170429
19.545443
22.178959
19.606145
0
0
0
28.488046
28.492564
28.496993
95.156369
0
92.680585
0
0
0
0
0
0
0
0
0
0
223.15418
396.34257
247.53389
237.13042
261.26377
451.47518
404.91984
424.29853
472.10861
555.54243
349.04784
299.5432
187.49767
58.340645
0
0
0
0
613.89092
598.87669
207.14156
202.46979
525.06875
555.06319
0
0
0
0
0
0
93.929846
73.007353
0
0
0
0
274.59911
500.89163
578.7532
584.48812
655.95748
511.40293
634.29139
368.71302
327.6665
299.57736
370.09026
290.89727
254.06782
288.78239
366.01853
311.9228
0
0
0
0
0
0
0
400.45703
384.3253
195.1134
0
0
2.0460744
0
4.4445224
50.616183
0
28.225168
0
0
0
0
0
0
0
513.61815
610.89273
528.65333
535.06104
563.41561
689.34127
672.70951
643.1339
676.56306
662.03145
743.24868
708.80308
48.996777
0
0
0
41.600953
68.255353
101.97731
102.08048
196.16174
62.625499
0
0
0
0
413.1167
292.49236
278.80842
423.66297
438.9151
378.2201
421.00763
557.23746
278.81321
293.53877
278.80949
293.44063
303.95037
303.9125
303.9076
303.87438
146.55017
173.37726
161.09407
319.83034
306.41233
295.0366
465.28134
572.34134
433.94346
427.97889
477.78642
586.60674
442.88605
498.38211
303.905
436.40592
303.90009
306.10413
444.97875
0
0
0
0
0
0
0
0
0
14.064478
0
0
6.9369613
103.84598
0
0
0
0
0
102.49343
17.041474
28.414984
199.21533
28.387121
57.605917
71.588688
0
0
0
0
0
0
0
0
114.78954
153.38787
106.48314
286.1021
244.93133
0
0
0
0
0
0
0
0
0
0
0
0
0
0
0
377.68634
426.17725
434.12721
688.51841
691.45226
646.33325
725.89894
741.03488
596.92255
180.87756
416.77502
412.96192
388.68059
642.45465
534.73026
566.18578
672.13329
520.18654
195.09794
423.65118
425.32722
245.32019
384.70089
586.01785
579.46123
707.52151
219.5689
)


1190
(
29.52758
15.498895
15.498895
29.52758
585.76158
67.059974
38.389656
585.76158
585.76158
585.76158
20.597418
32.880068
26.525201
32.880068
585.76158
585.76158
585.76158
67.059974
585.76158
250.31929
38.389656
45.840499
103.91972
585.76158
585.76158
136.53143
585.76158
585.76158
60.354376
15.964478
39.74508
39.74508
29.52758
115.4745
585.76158
213.91338
585.76158
585.76158
585.76158
585.76158
585.76158
585.76158
585.76158
585.76158
585.76158
585.76158
585.76158
23.847747
27.298705
585.76158
54.040202
38.874735
38.874735
20.888481
20.888481
20.888481
15.498895
15.498895
15.498895
38.874735
38.874735
29.52758
31.931135
24.603329
32.880068
68.709993
68.709993
44.551189
585.76158
585.76158
45.840499
585.76158
585.76158
38.389656
45.840499
45.840499
45.840499
45.840499
585.76158
339.23338
129.38312
29.52758
23.847747
23.847747
57.445545
44.551189
198.46925
585.76158
585.76158
585.76158
92.763696
585.76158
585.76158
585.76158
585.76158
585.76158
585.76158
585.76158
585.76158
23.847747
20.597418
20.597418
20.597418
32.880068
32.880068
32.880068
54.040202
54.040202
57.445545
115.4745
116.25878
585.76158
585.76158
116.25878
585.76158
31.931135
31.931135
31.931135
24.603329
31.931135
24.603329
24.603329
24.603329
32.880068
227.51552
54.040202
54.040202
585.76158
54.040202
227.51552
129.38312
54.040202
585.76158
31.931135
57.445545
57.445545
31.931135
227.51552
585.76158
585.76158
92.763696
92.763696
92.763696
15.498895
20.888481
20.888481
585.76158
585.76158
585.76158
67.059974
585.76158
585.76158
585.76158
585.76158
585.76158
585.76158
585.76158
585.76158
226.27607
26.525201
26.525201
26.525201
585.76158
585.76158
585.76158
585.76158
67.059974
103.91972
38.389656
382.0298
103.91972
103.91972
20.888481
250.31929
250.31929
585.76158
585.76158
585.76158
585.76158
585.76158
585.76158
136.53143
585.76158
136.53143
60.354376
60.354376
60.354376
15.964478
15.964478
15.964478
39.74508
27.298705
60.354376
27.298705
27.298705
39.74508
585.76158
68.709993
68.709993
585.76158
585.76158
585.76158
115.4745
115.4745
585.76158
585.76158
585.76158
585.76158
585.76158
585.76158
27.298705
26.525201
26.525201
44.551189
44.551189
115.4745
57.445545
585.76158
585.76158
585.76158
585.76158
585.76158
585.76158
585.76158
585.76158
585.76158
585.76158
585.76158
585.76158
585.76158
585.76158
585.76158
585.76158
585.76158
585.76158
103.91972
585.76158
103.91972
585.76158
585.76158
585.76158
585.76158
227.80796
227.80796
227.80796
227.03691
227.80796
227.80796
227.80796
227.80796
227.80796
227.80796
227.80796
227.80796
227.80796
227.80796
227.80796
227.80796
227.80796
227.80796
227.80796
227.80796
227.80796
227.80796
227.80796
227.80796
227.80796
227.80796
227.80796
227.80796
227.80796
227.80796
227.80796
227.80796
227.80796
227.80796
227.80796
227.80796
227.80796
227.80796
227.80796
227.80796
227.80796
227.80796
227.80796
227.80796
227.80796
227.80796
227.80796
227.80796
227.80796
227.80796
227.80796
227.80796
227.80796
227.80796
227.80796
227.80796
227.80796
227.80796
227.80796
227.80796
227.80796
227.80796
227.80796
227.80796
227.80796
227.80796
227.80796
227.80796
227.80796
227.80796
227.80796
227.80796
227.80796
227.80796
227.80796
227.80796
227.80796
227.80796
227.80796
227.80796
227.80796
227.80796
227.80796
227.80796
227.80796
227.80796
227.80796
227.80796
227.80796
227.80796
227.80796
227.80796
227.80796
227.80796
227.80796
227.80796
227.80796
227.80796
227.80796
227.80796
227.80796
227.80796
227.80796
227.80796
227.80796
227.80796
227.80796
227.80796
227.80796
227.80796
227.80796
227.80796
227.80796
227.80796
227.80796
227.80796
227.80796
227.80796
227.80796
227.80796
227.80796
227.80796
227.80796
227.80796
227.80796
227.80796
227.80796
227.80796
227.80796
227.80796
227.80796
227.80796
227.80796
227.80796
227.80796
227.80796
227.80796
227.80796
227.80796
227.80796
227.80796
227.80796
227.80796
227.80796
227.80796
227.80796
227.80796
227.80796
227.80796
227.80796
227.80796
227.80796
227.80796
227.80796
227.80796
227.80796
227.80796
227.80796
227.80796
227.80796
227.80796
227.80796
227.80796
227.80796
227.80796
227.80796
227.80796
227.80796
227.80796
227.80796
227.80796
227.80796
227.80796
227.80796
227.80796
227.80796
227.80796
227.80796
227.80796
227.80796
227.80796
227.80796
227.80796
227.80796
227.80796
227.80796
227.80796
227.80796
227.80796
227.80796
227.80796
227.80796
227.80796
227.80796
227.80796
227.80796
227.80796
227.80796
227.80796
227.80796
227.80796
227.80796
227.80796
227.80796
227.80796
227.80796
227.80796
227.80796
227.80796
227.80796
227.80796
227.80796
227.80796
227.80796
227.80796
227.80796
227.80796
227.80796
227.80796
227.80796
227.80796
227.80796
227.80796
227.80796
227.80796
227.80796
227.80796
227.80796
227.80796
227.80796
227.80796
227.80796
227.80796
227.80796
227.80796
227.80796
227.80796
227.80796
227.80796
227.80796
227.80796
227.80796
227.80796
227.80796
227.80796
227.80796
227.80796
227.80796
227.80796
227.80796
227.80796
227.80796
227.80796
227.80796
227.80796
227.80796
227.80796
227.80796
227.80796
227.80796
227.80796
227.80796
227.80796
227.80796
227.80796
227.80796
227.80796
227.80796
227.80796
227.80796
227.80796
227.80796
227.80796
227.80796
227.80796
227.80796
227.80796
227.80796
227.80796
227.80796
227.80796
227.80796
227.80796
227.80796
227.80796
227.80796
227.80796
227.80796
227.80796
227.80796
227.80796
227.80796
227.80796
227.80796
227.80796
227.80796
227.80796
28.707689
0
0
0
0
4.9122724
0
0
0
0
0
0
0
0
0
0
0
0
0
0
217.27904
48.738684
0
34.128771
87.662979
0
0
0
175.08065
0
0
0
0
363.21768
602.03915
384.93435
283.28052
0
65.047361
50.931248
0
51.832791
0
83.402395
3.3935348
8.8078274
0
0
0
0
0
0
0
377.50286
314.6357
0
470.22419
0
0
0
77.470734
0
0
0
0
0
0
69.827591
28.400259
480.22954
0
0
0
0
0
0
63.61655
66.16503
0
0
0
0
0
0
0
0
0
0
0
0
0
0
0
0
0
0
0
0
0
0
100.86647
38.346179
0
0
0
0
71.670118
14.153755
80.753829
209.63126
138.20981
68.718097
0
0
0
0
0
0
617.61563
46.448131
35.527776
28.539787
291.73423
0
0
0
0
291.1094
278.82661
0
0
0
0
0
0
0
0
0
0
476.67833
451.69021
524.72444
558.46956
532.79785
565.91945
351.46906
460.95331
310.20697
378.23842
496.90536
564.93428
0
0
0
45.289817
40.575004
23.209355
25.549202
1.2421415
119.09822
0
0
0
0
0
274.61122
230.95366
305.75546
199.07263
289.25762
308.85441
200.91314
108.36035
181.12447
9.9593337
81.903376
106.17202
116.77027
71.488423
152.81944
142.3926
152.88742
142.39354
302.39146
385.20512
425.33176
425.33495
377.14774
0
0
0
0
0
0
0
0
0
0
0
0
0
0
84.690952
63.56387
0
0
0
0
0
0
0
0
0
0
80.167252
45.17722
0
0
0
0
0
335.74568
339.12459
219.8254
339.36296
87.777201
1.7447096
24.373653
41.101945
27.390735
14.056521
9.4427088
107.01501
71.487133
12.508656
19.127132
9.4305132
142.38551
142.38719
45.334266
72.840009
75.355761
196.4977
44.791379
58.218243
77.46474
0
0
43.495063
285.1653
287.58926
368.79602
358.34416
634.73546
649.77309
540.29989
466.85373
414.01157
504.92519
340.77559
448.90652
339.35981
582.93631
581.319
546.2863
635.93446
605.59191
629.00322
85.362625
102.01824
19.039828
0
95.158725
0
0
1.5738241
0
0
0
0
95.162587
0
0
0
79.516252
29.8413
38.651695
54.904779
43.299608
61.288102
38.460605
82.863652
0
126.01471
196.78166
342.88393
0
0
0
271.46712
76.671335
0
459.571
461.105
535.48393
606.38667
634.94972
0
0
0
0
0
0
0
0
0
0
126.15553
45.099848
0
78.080461
0.26249929
118.18739
51.097493
0
0
0
0
0
0
0
0
0
60.902643
0
54.244669
57.731907
25.024668
83.374023
210.20449
0
0
0
0
3.3965293
168.73461
152.57838
95.158609
8.2113654
7.7524616
109.82377
110.51755
0
0
0
0
0
122.05902
289.11889
116.21587
341.80038
122.80122
214.40819
193.50094
334.08753
313.04154
315.01908
376.53705
0
0
0
38.444771
219.81604
12.463751
57.775373
9.4223909
236.2256
193.51053
69.495033
478.46709
566.86049
585.89392
0
0
0
0
0
0
0
90.195395
91.198916
0
0
0
0
0
0
0
0
0
0
0
0
0
0
0
0
0
88.105211
0
0
0
0
0
0
0
95.159441
95.156822
95.154184
0
0
0
0
0
0
0
0
0
0
0
0
0
85.744893
230.98795
86.987408
73.798505
73.0014
252.96666
203.91655
223.01352
279.47321
355.26314
216.72854
201.63283
108.43435
9.0627227
0
0
0
0
419.98709
410.27294
177.36268
175.68205
547.42622
559.96417
0
0
0
0
0
0
149.67053
142.01133
0
0
0
0
318.25687
539.15762
484.2692
488.98922
627.59196
544.94539
615.89599
190.00986
153.95271
125.10523
217.18633
99.439152
65.841642
107.17729
216.13471
140.58553
0
0
0
0
0
0
0
333.38381
302.00505
147.84641
0
0
38.349866
0
0
23.37987
10.687762
31.844654
0
0
0
0
0
0
0
336.524
440.92889
367.39626
380.87392
429.11165
528.66915
498.49055
476.82491
550.8807
509.7535
602.89627
546.12451
0
0
0
0
0
69.984986
0
0
50.71365
0
0
0
0
0
303.31743
225.4017
191.02334
332.98411
345.57706
230.38602
308.84583
424.15222
191.02775
226.30113
191.02492
226.23253
261.9729
261.93393
261.93035
261.912
179.39315
204.84942
225.25924
320.985
313.03726
334.50076
479.84653
554.99039
424.57621
450.46262
442.815
532.11317
426.90655
443.0272
261.92399
368.48869
261.92149
307.09962
376.54296
0
0
0
0
0
0
0
0
0
113.8137
111.20744
83.348333
107.72887
220.37833
68.35177
0
0
0
0
138.2282
56.780954
58.269413
192.52162
58.246974
130.68355
138.22004
12.789906
15.907121
0
0
12.268708
12.273527
0
0
229.82466
231.20435
223.39942
339.36322
338.31284
57.303317
65.216196
31.323172
27.390297
36.253832
46.393719
52.941433
0
51.028308
0
0
0
0
0
38.79028
239.0542
301.66968
332.20771
609.27556
597.82354
622.23394
639.1903
634.81292
586.23706
111.40069
470.1293
453.74072
449.4623
617.63848
553.43968
557.32021
616.03441
551.45508
147.83167
447.20318
448.83108
338.59149
446.72082
522.07358
508.18117
622.42504
231.09237
)


1190
(
31.031031
26.026044
26.026044
31.031031
536.2201
36.024635
22.179513
77.298312
536.2201
46.171873
43.182176
37.824737
78.38824
37.824737
536.2201
536.2201
29.878248
36.024635
536.2201
536.2201
22.179513
29.878248
83.961362
536.2201
536.2201
34.248073
144.69686
160.20769
45.384658
21.928365
27.925773
27.925773
31.031031
104.30858
536.2201
536.2201
536.2201
536.2201
104.30858
536.2201
536.2201
536.2201
536.2201
536.2201
536.2201
536.2201
536.2201
26.763717
24.18012
536.2201
102.52716
35.855577
35.855577
37.09348
37.09348
37.09348
26.026044
26.026044
26.026044
35.855577
35.855577
31.031031
65.381243
40.717445
37.824737
183.71744
536.2201
101.80242
536.2201
536.2201
29.878248
160.20769
536.2201
22.179513
29.878248
29.878248
29.878248
29.878248
160.20769
160.20769
144.69686
31.031031
26.763717
26.763717
83.709587
101.80242
536.2201
536.2201
536.2201
536.2201
135.47024
536.2201
536.2201
536.2201
536.2201
536.2201
536.2201
536.2201
536.2201
26.763717
43.182176
43.182176
43.182176
37.824737
37.824737
37.824737
102.52716
102.52716
536.2201
104.30858
146.34583
536.2201
536.2201
146.34583
354.95318
65.381243
65.381243
65.381243
40.717445
65.381243
40.717445
40.717445
40.717445
37.824737
286.57177
102.52716
102.52716
536.2201
102.52716
286.57177
144.69686
102.52716
536.2201
65.381243
83.709587
83.709587
65.381243
536.2201
536.2201
536.2201
135.47024
536.2201
135.47024
26.026044
37.09348
37.09348
266.6391
266.6391
536.2201
36.024635
77.298312
77.298312
77.298312
536.2201
536.2201
536.2201
46.171873
46.171873
46.171873
78.38824
78.38824
78.38824
536.2201
536.2201
536.2201
536.2201
36.024635
83.961362
22.179513
536.2201
83.961362
83.961362
536.2201
496.10307
536.2201
536.2201
536.2201
228.35378
536.2201
536.2201
536.2201
34.248073
34.248073
34.248073
45.384658
45.384658
45.384658
21.928365
21.928365
21.928365
27.925773
24.18012
45.384658
24.18012
24.18012
27.925773
536.2201
536.2201
536.2201
536.2201
536.2201
536.2201
104.30858
104.30858
104.30858
536.2201
536.2201
536.2201
536.2201
536.2201
24.18012
78.38824
78.38824
101.80242
536.2201
536.2201
536.2201
536.2201
536.2201
536.2201
536.2201
536.2201
536.2201
536.2201
536.2201
536.2201
536.2201
536.2201
536.2201
536.2201
536.2201
536.2201
536.2201
536.2201
536.2201
83.961362
83.961362
83.961362
536.2201
536.2201
536.2201
354.95318
381.92334
381.92334
381.92334
381.20205
381.92334
381.92334
381.92334
381.92334
381.92334
67.293322
90.343503
94.105765
381.92334
93.007265
381.92334
381.92334
381.92334
381.92334
381.92334
381.92334
381.92334
381.92334
381.92334
381.92334
381.92334
381.92334
381.92334
381.92334
381.92334
381.92334
46.840111
40.140846
51.49915
48.092522
65.199129
36.083616
54.533577
66.862522
45.292294
27.599968
39.087574
31.552581
32.902259
35.263143
381.92334
381.92334
381.92334
381.92334
381.92334
381.92334
381.92334
381.92334
381.92334
381.92334
381.92334
381.92334
381.92334
381.92334
381.92334
381.92334
73.809829
101.8808
74.938645
100.47381
381.92334
381.92334
381.92334
381.92334
381.92334
381.92334
381.92334
381.92334
381.92334
381.92334
381.92334
381.92334
72.685543
99.120978
381.92334
381.92334
381.92334
381.92334
56.490688
44.690882
381.92334
381.92334
381.92334
381.92334
103.49937
76.26432
91.060335
118.46097
381.92334
381.92334
381.92334
381.92334
381.92334
381.92334
381.92334
381.92334
381.92334
381.92334
381.92334
381.92334
381.92334
381.92334
381.92334
381.92334
381.92334
381.92334
381.92334
381.92334
381.92334
381.92334
381.92334
381.92334
381.92334
381.92334
381.92334
381.92334
381.92334
381.92334
381.92334
381.92334
381.92334
381.92334
381.92334
381.92334
381.92334
381.92334
101.28574
381.92334
381.92334
381.92334
381.92334
381.92334
57.494087
47.462646
58.359643
46.226961
44.409122
51.907288
72.936216
60.64129
39.882355
38.149327
381.92334
381.92334
381.92334
381.92334
381.92334
381.92334
381.92334
381.92334
381.92334
381.92334
381.92334
381.92334
381.92334
381.92334
381.92334
381.92334
381.92334
381.92334
381.92334
381.92334
381.92334
381.92334
381.92334
381.92334
381.92334
381.92334
381.92334
381.92334
381.92334
381.92334
381.92334
381.92334
381.92334
381.92334
381.92334
381.92334
381.92334
381.92334
381.92334
381.92334
381.92334
381.92334
381.92334
381.92334
381.92334
381.92334
381.92334
381.92334
381.92334
381.92334
35.769101
381.92334
381.92334
381.92334
381.92334
381.92334
381.92334
381.92334
381.92334
381.92334
381.92334
381.92334
381.92334
381.92334
381.92334
381.92334
381.92334
381.92334
381.92334
381.92334
381.92334
381.92334
381.92334
381.92334
381.92334
381.92334
381.92334
381.92334
381.92334
381.92334
381.92334
381.92334
381.92334
381.92334
381.92334
381.92334
381.92334
51.366197
60.938649
60.417911
73.454723
83.70058
71.065722
86.638536
103.99559
381.92334
381.92334
381.92334
381.92334
381.92334
381.92334
381.92334
381.92334
381.92334
381.92334
381.92334
381.92334
381.92334
381.92334
381.92334
381.92334
381.92334
381.92334
381.92334
381.92334
381.92334
381.92334
381.92334
381.92334
381.92334
381.92334
381.92334
381.92334
381.92334
381.92334
381.92334
381.92334
381.92334
381.92334
381.92334
381.92334
381.92334
381.92334
381.92334
381.92334
381.92334
381.92334
381.92334
381.92334
381.92334
381.92334
381.92334
381.92334
381.92334
381.92334
381.92334
381.92334
381.92334
381.92334
381.92334
381.92334
0
0
0
0
0
132.4125
0
0
0
0
0
0
0
0
0
0
0
0
0
0
84.134676
95.325166
0
0
0
0
0
0
16.315336
0
0
0
0
248.70379
539.68133
250.26945
167.45079
0
0
0
0
0
0
0
102.60485
0
0
0
0
0
0
0
0
241.71314
185.12306
0
509.48095
0
0
0
171.0147
0
0
0
0
0
0
124.80194
17.250196
455.16947
0
0
0
0
0
0
126.14423
131.28028
0
0
0
0
0
0
0
0
0
0
0
0
0
0
0
0
0
0
0
0
0
0
30.763109
0
0
0
0
0
13.607406
47.612407
21.484695
242.78172
222.87791
12.725682
0
0
0
0
0
0
581.84331
71.085729
126.27344
67.235315
151.43475
0
0
0
0
225.02696
182.25215
0
0
0
0
0
12.801256
0
0
0
0
367.1224
333.3528
441.2163
493.57782
441.19742
501.22681
215.92268
343.19612
181.67093
282.32525
432.88157
484.22625
0
0
0
135.19041
130.48642
70.296573
0
0
12.090908
0
0
0
0
0
186.70732
116.02095
205.72649
132.06647
203.17265
233.02048
132.01874
1.1014508
113.31521
64.47975
22.842181
69.850317
79.523029
13.372153
141.83775
132.24218
141.83234
132.23971
328.45753
365.14841
442.50244
442.50446
358.39371
0
0
0
0
0
0
0
0
0
0
0
0
0
0
195.07948
158.32699
0
0
0
0
0
0
0
0
0
0
134.12992
91.676641
20.553558
0
0
0
0
447.23179
449.42239
305.2308
414.65541
122.68287
52.354792
60.953862
82.347571
58.253359
30.298949
38.321014
70.567575
13.36993
8.6420881
32.158777
10.439256
132.23221
132.23682
42.063401
120.62363
128.5965
229.02282
51.479947
106.43295
132.50048
0
0
19.314954
186.52347
206.53194
316.8742
341.91294
667.388
657.4576
598.97467
507.07992
421.62659
556.52124
450.60167
542.37402
414.65357
538.86744
566.69351
562.07109
655.23746
567.15387
629.99544
0
46.205947
0
0
180.3111
0
0
55.290914
0
0
0
0
180.31429
0
0
0
166.98016
81.676017
129.59511
0
0
0
0
0
0
0
38.027529
207.71882
0
0
0
163.31502
97.855858
0
397.47888
399.12877
495.00751
548.52942
600.63448
0
0
0
0
0
0
0
0
0
0
21.561293
51.493743
0
165.5951
53.703495
13.35131
48.390657
0
0
0
0
0
0
0
0
0
0
0
0
0
0
0
96.452148
0
0
0
0
102.6075
9.0878841
0
180.31102
106.72337
106.42272
0
0
0
0
0
0
0
0
171.60235
10.125536
286.66582
14.512353
286.10921
232.80852
395.65589
342.23636
343.12733
346.49713
0
0
43.596992
33.684709
305.22039
28.592583
62.020958
10.428274
307.15912
232.81531
75.594256
468.37792
546.23866
597.68342
0
0
0
0
0
0
0
175.28641
174.59645
0
0
0
0
0
0
0
0
0
0
0
0
0
0
0
0
0
0
0
0
0
0
0
0
0
180.31171
180.30956
180.30742
0
0
0
0
0
0
0
0
0
0
0
0
0
0
116.5507
0
0
53.635607
101.43786
45.867897
66.718319
134.8682
215.03008
132.15119
147.2905
61.423427
0
0
0
0
0
292.14852
284.26278
181.94115
182.74578
623.11357
620.64571
0
0
0
0
2.741186
0
226.16482
229.07489
0
2.744521
12.596588
0
381.95508
630.58564
444.78727
449.22959
669.48668
632.10241
667.22516
46.196029
10.253172
13.289059
96.925322
51.509234
58.290345
28.374456
98.23813
1.5809986
0
0
0
0
0
0
0
320.32012
272.11021
133.74988
0
0
0
0
0
13.987669
34.990465
50.79671
0
0
0
0
0
0
0
210.17579
332.8463
257.31664
278.16501
348.74127
439.71078
400.63455
385.35097
504.21827
434.65604
545.15552
463.20738
0
0
0
0
0
158.89058
0
0
0
0
0
0
0
0
228.86588
178.94624
122.79449
278.41043
290.18098
115.73958
233.01291
344.20029
122.79906
179.81933
122.79668
179.76869
241.71887
241.67442
241.67159
241.66424
216.52995
243.70901
296.52071
346.1959
342.23296
396.35518
537.66985
593.90319
453.10227
511.63982
450.57916
534.07852
449.74191
432.66114
241.66117
337.93593
241.66051
330.49335
346.50148
0
0
0
0
0
0
0
0
0
204.90447
235.70278
175.57574
199.07787
340.65136
197.62111
0
0
0
0
196.3353
110.01649
103.04936
219.06423
103.02931
220.09317
222.88837
112.33157
114.42071
0
93.026384
112.17087
112.17695
80.8927
0
349.87179
315.90328
344.44468
414.65653
451.84649
117.55481
126.06881
70.907532
58.253584
45.389642
94.92029
38.262643
0
46.09669
0
0
0
19.68308
12.228676
12.219307
150.90714
233.13644
287.50198
609.0292
583.96266
668.99065
633.49459
611.0981
643.44081
73.422338
563.67977
532.61671
547.14312
660.24364
626.56697
604.49282
628.92035
639.16525
133.73426
508.93489
510.73854
452.05564
545.2064
514.28152
492.07107
610.49602
277.43201
)


1190
(
11.292684
11.97522
11.97522
11.292684
411.8157
35.958681
19.707134
30.971042
411.8157
23.642065
10.323982
14.920494
34.673886
14.920494
411.8157
411.8157
24.93212
35.958681
411.8157
411.8157
19.707134
24.93212
197.00505
85.967862
411.8157
20.721005
111.7147
125.13682
31.972023
15.208907
18.61673
18.61673
11.292684
32.679015
0
0
411.8157
411.8157
32.679015
0
411.8157
411.8157
0
0
411.8157
411.8157
411.8157
8.6830889
11.72605
0
35.15457
18.211933
18.211933
38.214733
38.214733
411.8157
11.97522
11.97522
11.97522
18.211933
18.211933
11.292684
10.888419
7.7181657
14.920494
142.73778
142.73778
35.443831
411.8157
411.8157
24.93212
125.13682
85.967862
19.707134
24.93212
24.93212
24.93212
24.93212
125.13682
125.13682
111.7147
11.292684
8.6830889
8.6830889
21.987599
35.443831
134.42561
134.42561
0
411.8157
24.32257
411.8157
411.8157
0
411.8157
411.8157
411.8157
0
0
8.6830889
10.323982
10.323982
10.323982
14.920494
14.920494
14.920494
35.15457
35.15457
21.987599