/*--------------------------------*- C++ -*----------------------------------*\
  =========                 |
  \\      /  F ield         | OpenFOAM: The Open Source CFD Toolbox
   \\    /   O peration     | Website:  https://openfoam.org
    \\  /    A nd           | Version:  8
     \\/     M anipulation  |
\*---------------------------------------------------------------------------*/
/*   Windows 32 and 64 bit porting by blueCAPE: http://www.bluecape.com.pt   *\
|  Based on Windows porting (2.0.x v4) by Symscape: http://www.symscape.com   |
\*---------------------------------------------------------------------------*/
FoamFile
{
    version     2.0;
    format      ascii;
    class       scalarListList;
    location    "constant/vegetation";
    object      sunViewCoeff;
}
// * * * * * * * * * * * * * * * * * * * * * * * * * * * * * * * * * * * * * //


5
(

357
(
42.096015
23.163148
717.08284
717.08284
541.43229
717.08284
717.08284
717.08284
18.899341
41.577463
21.276076
717.08284
594.19535
327.30243
672.61335
717.08284
717.08284
717.08284
590.99343
717.08284
501.87485
41.360577
113.75914
33.005617
343.74135
660.56876
717.08284
32.059376
51.684182
73.754969
61.98297
42.694306
17.821997
23.297309
42.157296
21.744381
717.08284
22.144653
72.446791
717.08284
51.818378
717.08284
717.08284
717.08284
717.08284
199.14428
388.71113
0
80.639504
80.639504
80.639504
79.704411
80.639504
80.639504
80.639504
80.639504
80.639504
80.639504
80.639504
80.639504
80.639504
80.639504
80.639504
80.639504
80.639504
80.639504
80.639504
80.639504
80.639504
80.639504
80.639504
80.639504
80.639504
80.639504
80.639504
80.639504
80.639504
80.639504
80.639504
80.639504
80.639504
80.639504
80.639504
80.639504
80.639504
80.639504
80.639504
80.639504
80.639504
80.639504
80.639504
80.639504
80.639504
80.639504
80.639504
80.639504
80.639504
80.639504
80.639504
80.639504
80.639504
80.639504
80.639504
80.639504
80.639504
80.639504
80.639504
80.639504
80.639504
80.639504
80.639504
80.639504
80.639504
80.639504
80.639504
80.639504
80.639504
80.639504
80.639504
80.639504
80.639504
80.639504
80.639504
80.639504
80.639504
80.639504
80.639504
80.639504
80.639504
80.639504
80.639504
80.639504
80.639504
80.639504
80.639504
80.639504
80.639504
80.639504
80.639504
80.639504
80.639504
80.639504
80.639504
80.639504
80.639504
80.639504
80.639504
80.639504
80.639504
80.639504
80.639504
80.639504
80.639504
80.639504
80.639504
80.639504
80.639504
80.639504
80.639504
80.639504
80.639504
80.639504
80.639504
80.639504
80.639504
80.639504
80.639504
80.639504
80.639504
80.639504
80.639504
80.639504
80.639504
80.639504
80.639504
80.639504
80.639504
80.639504
80.639504
80.639504
80.639504
80.639504
80.639504
80.639504
80.639504
80.639504
80.639504
80.639504
80.639504
80.639504
80.639504
80.639504
80.639504
80.639504
80.639504
80.639504
80.639504
80.639504
80.639504
80.639504
80.639504
80.639504
80.639504
80.639504
80.639504
80.639504
80.639504
80.639504
80.639504
80.639504
80.639504
80.639504
80.639504
80.639504
80.639504
80.639504
80.639504
80.639504
80.639504
80.639504
80.639504
80.639504
80.639504
80.639504
80.639504
80.639504
80.639504
80.639504
80.639504
80.639504
80.639504
80.639504
80.639504
80.639504
80.639504
80.639504
80.639504
80.639504
80.639504
80.639504
80.639504
80.639504
80.639504
80.639504
80.639504
80.639504
80.639504
80.639504
80.639504
80.639504
80.639504
80.639504
80.639504
80.639504
80.639504
80.639504
80.639504
80.639504
80.639504
80.639504
80.639504
80.639504
80.639504
80.639504
80.639504
80.639504
80.639504
80.639504
80.639504
80.639504
80.639504
80.639504
80.639504
80.639504
80.639504
80.639504
80.639504
80.639504
80.639504
80.639504
80.639504
80.639504
80.639504
80.639504
80.639504
80.639504
80.639504
80.639504
80.639504
80.639504
80.639504
80.639504
80.639504
80.639504
80.639504
80.639504
80.639504
80.639504
80.639504
80.639504
80.639504
80.639504
80.639504
80.639504
80.639504
80.639504
80.639504
80.639504
80.639504
80.639504
80.639504
80.639504
80.639504
80.639504
80.639504
80.639504
80.639504
80.639504
80.639504
80.639504
80.639504
80.639504
80.639504
80.639504
80.639504
80.639504
80.639504
80.639504
80.639504
80.639504
80.639504
80.639504
80.639504
80.639504
80.639504
80.639504
80.639504
80.639504
80.639504
80.639504
80.639504
80.639504
80.639504
80.639504
80.639504
169.06008
0
0
691.08585
126.84084
19.589855
374.60372
0
39.061646
520.74157
8.6422641
253.50027
)


357
(
29.52758
15.498895
585.76158
67.059974
38.389656
585.76158
545.50455
492.25064
20.597418
32.880068
26.525201
585.76158
124.33968
445.50035
141.012
585.76158
585.76158
243.98605
355.3272
571.69566
60.354376
15.964478
39.74508
249.8498
505.99359
585.76158
585.76158
23.847747
27.298705
54.040202
38.874735
20.888481
31.931135
24.603329
68.709993
44.551189
585.76158
57.445545
490.08495
585.76158
92.763696
585.76158
585.76158
585.76158
585.76158
333.03063
427.4386
0
227.80796
227.80796
227.80796
227.03691
227.80796
227.80796
227.80796
227.80796
227.80796
227.80796
227.80796
227.80796
227.80796
227.80796
227.80796
227.80796
227.80796
227.80796
227.80796
227.80796
227.80796
227.80796
227.80796
227.80796
227.80796
227.80796
227.80796
227.80796
227.80796
227.80796
227.80796
227.80796
227.80796
227.80796
227.80796
227.80796
227.80796
227.80796
227.80796
227.80796
227.80796
227.80796
227.80796
227.80796
227.80796
227.80796
227.80796
227.80796
227.80796
227.80796
227.80796
227.80796
227.80796
227.80796
227.80796
227.80796
227.80796
227.80796
227.80796
227.80796
227.80796
227.80796
227.80796
227.80796
227.80796
227.80796
227.80796
227.80796
227.80796
227.80796
227.80796
227.80796
227.80796
227.80796
227.80796
227.80796
227.80796
227.80796
227.80796
227.80796
227.80796
227.80796
227.80796
227.80796
227.80796
227.80796
227.80796
227.80796
227.80796
227.80796
227.80796
227.80796
227.80796
227.80796
227.80796
227.80796
227.80796
227.80796
227.80796
227.80796
227.80796
227.80796
227.80796
227.80796
227.80796
227.80796
227.80796
227.80796
227.80796
227.80796
227.80796
227.80796
227.80796
227.80796
227.80796
227.80796
227.80796
227.80796
227.80796
227.80796
227.80796
227.80796
227.80796
227.80796
227.80796
227.80796
227.80796
227.80796
227.80796
227.80796
227.80796
227.80796
227.80796
227.80796
227.80796
227.80796
227.80796
227.80796
227.80796
227.80796
227.80796
227.80796
227.80796
227.80796
227.80796
227.80796
227.80796
227.80796
227.80796
227.80796
227.80796
227.80796
227.80796
227.80796
227.80796
227.80796
227.80796
227.80796
227.80796
227.80796
227.80796
227.80796
227.80796
227.80796
227.80796
227.80796
227.80796
227.80796
227.80796
227.80796
227.80796
227.80796
227.80796
227.80796
227.80796
227.80796
227.80796
227.80796
227.80796
227.80796
227.80796
227.80796
227.80796
227.80796
227.80796
227.80796
227.80796
227.80796
227.80796
227.80796
227.80796
227.80796
227.80796
227.80796
227.80796
227.80796
227.80796
227.80796
227.80796
227.80796
227.80796
227.80796
227.80796
227.80796
227.80796
227.80796
227.80796
227.80796
227.80796
227.80796
227.80796
227.80796
227.80796
227.80796
227.80796
227.80796
227.80796
227.80796
227.80796
227.80796
227.80796
227.80796
227.80796
227.80796
227.80796
227.80796
227.80796
227.80796
227.80796
227.80796
227.80796
227.80796
227.80796
227.80796
227.80796
227.80796
227.80796
227.80796
227.80796
227.80796
227.80796
227.80796
227.80796
227.80796
227.80796
227.80796
227.80796
227.80796
227.80796
227.80796
227.80796
227.80796
227.80796
227.80796
227.80796
227.80796
227.80796
227.80796
227.80796
227.80796
227.80796
227.80796
227.80796
227.80796
227.80796
227.80796
227.80796
227.80796
227.80796
227.80796
227.80796
227.80796
227.80796
227.80796
227.80796
227.80796
227.80796
227.80796
227.80796
227.80796
227.80796
227.80796
227.80796
227.80796
227.80796
227.80796
227.80796
227.80796
227.80796
227.80796
227.80796
227.80796
227.80796
227.80796
227.80796
227.80796
227.80796
54.44799
0
0
507.60567
9.2425561
27.18433
177.50165
0
30.284889
519.32006
8.9878333
211.11944
)


357
(
31.031031
26.026044
389.0273
36.024635
22.179513
77.298312
536.2201
46.171873
43.182176
37.824737
78.38824
536.2201
29.878248
530.72554
83.961362
510.06059
536.2201
34.248073
242.3169
327.83024
45.384658
21.928365
27.925773
165.6596
536.2201
463.87379
536.2201
26.763717
24.18012
102.52716
35.855577
150.27349
65.381243
40.717445
448.81149
210.12133
536.2201
257.8521
536.2201
536.2201
251.84155
536.2201
536.2201
536.2201
536.2201
326.35278
467.52045
0
381.92334
381.92334
381.92334
381.20205
381.92334
381.92334
381.92334
381.92334
381.92334
67.293322
90.343503
94.105765
381.92334
93.007265
381.92334
381.92334
381.92334
381.92334
381.92334
381.92334
381.92334
381.92334
381.92334
381.92334
381.92334
381.92334
381.92334
381.92334
381.92334
381.92334
46.840111
40.140846
51.49915
48.092522
65.199129
36.083616
54.533577
66.862522
45.292294
27.599968
39.087574
31.552581
32.902259
35.263143
381.92334
381.92334
381.92334
381.92334
381.92334
381.92334
381.92334
381.92334
381.92334
381.92334
381.92334
381.92334
381.92334
381.92334
381.92334
381.92334
73.809829
101.8808
74.938645
100.47381
381.92334
381.92334
381.92334
381.92334
381.92334
381.92334
381.92334
381.92334
381.92334
381.92334
381.92334
381.92334
72.685543
99.120978
381.92334
381.92334
381.92334
381.92334
56.490688
44.690882
381.92334
381.92334
381.92334
381.92334
103.49937
76.26432
91.060335
118.46097
381.92334
381.92334
381.92334
381.92334
381.92334
381.92334
381.92334
381.92334
381.92334
381.92334
381.92334
381.92334
381.92334
381.92334
381.92334
381.92334
381.92334
381.92334
381.92334
381.92334
381.92334
381.92334
381.92334
381.92334
381.92334
381.92334
381.92334
381.92334
381.92334
381.92334
381.92334
381.92334
381.92334
381.92334
381.92334
381.92334
381.92334
381.92334
101.28574
381.92334
381.92334
381.92334
381.92334
381.92334
57.494087
47.462646
58.359643
46.226961
44.409122
51.907288
72.936216
60.64129
39.882355
38.149327
381.92334
381.92334
381.92334
381.92334
381.92334
381.92334
381.92334
381.92334
381.92334
381.92334
381.92334
381.92334
381.92334
381.92334
381.92334
381.92334
381.92334
381.92334
381.92334
381.92334
381.92334
381.92334
381.92334
381.92334
381.92334
381.92334
381.92334
381.92334
381.92334
381.92334
381.92334
381.92334
381.92334
381.92334
381.92334
381.92334
381.92334
381.92334
381.92334
381.92334
381.92334
381.92334
381.92334
381.92334
381.92334
381.92334
381.92334
381.92334
381.92334
381.92334
35.769101
381.92334
381.92334
381.92334
381.92334
381.92334
381.92334
381.92334
381.92334
381.92334
381.92334
381.92334
381.92334
381.92334
381.92334
381.92334
381.92334
381.92334
381.92334
381.92334
381.92334
381.92334
381.92334
381.92334
381.92334
381.92334
381.92334
381.92334
381.92334
381.92334
381.92334
381.92334
381.92334
381.92334
381.92334
381.92334
381.92334
51.366197
60.938649
60.417911
73.454723
83.70058
71.065722
86.638536
103.99559
381.92334
381.92334
381.92334
381.92334
381.92334
381.92334
381.92334
381.92334
381.92334
381.92334
381.92334
381.92334
381.92334
381.92334
381.92334
381.92334
381.92334
381.92334
381.92334
381.92334
381.92334
381.92334
381.92334
381.92334
381.92334
381.92334
381.92334
381.92334
381.92334
381.92334
381.92334
381.92334
381.92334
381.92334
381.92334
381.92334
381.92334
381.92334
381.92334
381.92334
381.92334
381.92334
381.92334
381.92334
381.92334
381.92334
381.92334
381.92334
381.92334
381.92334
381.92334
381.92334
381.92334
381.92334
381.92334
381.92334
5.1809713
23.95806
0
397.82003
25.902147
10.904016
36.945154
0
22.028395
568.66563
25.276636
186.25756
)


357
(
11.292684
11.97522
411.8157
35.958681
19.707134
30.971042
411.8157
23.642065
10.323982
14.920494
34.673886
411.8157
24.93212
411.8157
332.88457
196.5662
411.8157
20.721005
186.54007
252.93539
31.972023
15.208907
18.61673
32.679015
0
81.978789
411.8157
8.6830889
11.72605
94.089615
18.211933
206.80281
10.888419
7.7181657
278.36255
35.443831
411.8157
21.987599
204.22385
0
24.32257
411.8157
411.8157
0
0
23.953337
218.75158
0
471.50949
471.50949
471.50949
470.93228
471.50949
471.50949
60.144791
78.609765
45.518604
31.962349
37.030464
41.379605
45.983091
37.57482
59.572475
73.255192
77.647102
55.079816
471.50949
471.50949
471.50949
471.50949
471.50949
471.50949
471.50949
471.50949
471.50949
471.50949
471.50949
471.50949
28.829856
28.567941
30.677517
29.376009
33.94727
26.992092
31.467168
34.392965
28.451203
24.565685
28.158505
24.797874
27.816877
28.248598
68.501225
52.488685
471.50949
85.17217
471.50949
471.50949
471.50949
123.09556
471.50949
140.57358
471.50949
142.75354
471.50949
471.50949
471.50949
471.50949
38.324211
44.134184
39.388454
43.972808
80.761529
57.130723
59.321407
74.062737
471.50949
471.50949
471.50949
471.50949
471.50949
471.50949
471.50949
471.50949
46.92146
56.628219
107.1188
77.358343
471.50949
471.50949
39.406104
33.595204
149.03943
471.50949
471.50949
471.50949
46.041706
40.580373
42.001794
48.448154
471.50949
471.50949
471.50949
471.50949
59.367102
76.734893
80.083171
61.621913
471.50949
471.50949
471.50949
471.50949
471.50949
471.50949
471.50949
471.50949
471.50949
471.50949
471.50949
471.50949
471.50949
471.50949
471.50949
471.50949
471.50949
471.50949
471.50949
471.50949
471.50949
471.50949
471.50949
471.50949
471.50949
471.50949
471.50949
471.50949
85.508837
64.257711
39.691662
48.460195
471.50949
471.50949
471.50949
471.50949
34.508792
31.855671
35.310824
31.194922
29.739369
30.175747
36.122984
32.907021
29.333627
28.900007
110.47379
134.21184
96.099588
156.97107
471.50949
471.50949
471.50949
471.50949
471.50949
471.50949
471.50949
471.50949
471.50949
471.50949
471.50949
471.50949
471.50949
471.50949
471.50949
471.50949
471.50949
471.50949
471.50949
471.50949
471.50949
471.50949
471.50949
471.50949
471.50949
471.50949
471.50949
471.50949
471.50949
471.50949
471.50949
471.50949
471.50949
471.50949
471.50949
471.50949
471.50949
471.50949
471.50949
471.50949
471.50949
471.50949
471.50949
471.50949
471.50949
471.50949
30.579038
471.50949
471.50949
471.50949
471.50949
471.50949
471.50949
471.50949
471.50949
471.50949
471.50949
471.50949
471.50949
471.50949
471.50949
471.50949
471.50949
471.50949
471.50949
471.50949
471.50949
471.50949
471.50949
471.50949
471.50949
471.50949
471.50949
471.50949
471.50949
101.75217
74.297614
88.575025
127.47696
44.511155
54.439475
63.330974
51.493229
32.507162
36.188748
33.150511
37.338166
40.130849
36.221213
40.843257
46.063088
471.50949
471.50949
471.50949
471.50949
138.91254
99.274817
102.32108
145.09498
471.50949
471.50949
471.50949
471.50949
471.50949
471.50949
471.50949
471.50949
471.50949
471.50949
471.50949
471.50949
471.50949
471.50949
471.50949
471.50949
471.50949
471.50949
471.50949
471.50949
471.50949
471.50949
471.50949
471.50949
471.50949
471.50949
471.50949
471.50949
471.50949
471.50949
471.50949
471.50949
471.50949
471.50949
471.50949
471.50949
471.50949
471.50949
471.50949
471.50949
471.50949
471.50949
471.50949
471.50949
471.50949
471.50949
471.50949
471.50949
25.908644
13.851636
0
228.17258
39.403735
0
43.072826
0
10.991406
524.00261
25.882386
115.67054
)


357
(
0
0
0
0
0
0
0
0
0
0
0
0
0
0
0
0
0
0
0
0
0
0
0
0
0
0
0
0
0
0
0
0
0
0
0
0
0
0
0
0
0
0
0
0
0
0
0
0
524.72754
524.72754
524.72754
0
524.72754
524.72754
15.144285
22.421998
12.885795
7.6067153
11.422157
8.6246299
13.424486
11.90008
14.536624
16.043236
21.511261
9.7790999
67.148605
38.699886
524.72754
524.72754
524.72754
524.72754
524.72754
524.72754
66.528548
33.937023
40.983
72.217995
11.540246
11.97945
10.65901
6.7939713
10.152411
7.0938205
11.0651
10.58611
11.032473
7.7006932
11.425672
7.3990917
20.067897
15.052733
39.216832
31.73538
524.72754
45.464261
524.72754
524.72754
524.72754
53.066389
88.388754
52.646757
88.099473
61.169791
524.72754
524.72754
147.80108
524.72754
37.191467
39.143706
31.873723
45.681671
70.305431
47.417324
56.699526
57.393804
524.72754
524.72754
524.72754
524.72754
136.34064
524.72754
69.763584
79.856051
43.165141
53.089488
85.639202
67.469325
524.72754
524.72754
38.530042
34.629349
114.94388
156.19828
524.72754
211.34403
35.63626
28.870492
28.609738
35.273757
524.72754
524.72754
203.77979
524.72754
42.769847
51.406887
50.895527
42.041535
524.72754
524.72754
524.72754
524.72754
524.72754
524.72754
524.72754
524.72754
524.72754
524.72754
524.72754
524.72754
524.72754
524.72754
524.72754
524.72754
524.72754
524.72754
524.72754
524.72754
524.72754
524.72754
524.72754
524.72754
524.72754
524.72754
524.72754
524.72754
24.530947
17.080816
13.471219
15.170489
40.039884
65.641502
524.72754
109.96015
31.270725
20.360329
25.218402
26.636353
13.596507
13.074054
11.973368
12.522394
17.032857
23.144564
88.954682
80.853781
68.400781
112.86181
199.13657
95.166687
142.57996
143.25527
524.72754
524.72754
524.72754
524.72754
524.72754
524.72754
524.72754
524.72754
524.72754
524.72754
524.72754
524.72754
524.72754
524.72754
524.72754
524.72754
524.72754
524.72754
524.72754
524.72754
524.72754
524.72754
524.72754
524.72754
524.72754
524.72754
524.72754
524.72754
524.72754
524.72754
524.72754
524.72754
524.72754
524.72754
524.72754
524.72754
524.72754
524.72754
524.72754
524.72754
524.72754
116.94445
30.612133
524.72754
524.72754
524.72754
524.72754
524.72754
524.72754
524.72754
524.72754
524.72754
524.72754
524.72754
524.72754
524.72754
524.72754
524.72754
524.72754
46.955434
72.394914
80.993244
57.239107
524.72754
524.72754
524.72754
524.72754
524.72754
524.72754
524.72754
524.72754
30.613037
22.00591
30.624418
41.004276
17.213834
19.466461
27.08072
23.69224
16.851756
21.818649
16.293177
21.520781
15.20735
15.717719
20.874691
20.897172
78.943606
123.74254
121.58781
76.550102
68.704737
59.767608
58.624931
67.32939
524.72754
524.72754
524.72754
524.72754
524.72754
524.72754
524.72754
524.72754
524.72754
524.72754
524.72754
524.72754
524.72754
524.72754
524.72754
524.72754
524.72754
524.72754
524.72754
524.72754
524.72754
524.72754
524.72754
524.72754
524.72754
524.72754
524.72754
524.72754
524.72754
524.72754
524.72754
524.72754
524.72754
524.72754
524.72754
524.72754
524.72754
524.72754
524.72754
524.72754
524.72754
524.72754
524.72754
524.72754
524.72754
524.72754
524.72754
524.72754
31.784654
0
0
80.951721
16.087876
0
47.095385
0
78.700564
439.13932
0.35061384
44.44497
)

)


// ************************************************************************* //
