/*--------------------------------*- C++ -*----------------------------------*\
  =========                 |
  \\      /  F ield         | OpenFOAM: The Open Source CFD Toolbox
   \\    /   O peration     | Website:  https://openfoam.org
    \\  /    A nd           | Version:  8
     \\/     M anipulation  |
\*---------------------------------------------------------------------------*/
/*   Windows 32 and 64 bit porting by blueCAPE: http://www.bluecape.com.pt   *\
|  Based on Windows porting (2.0.x v4) by Symscape: http://www.symscape.com   |
\*---------------------------------------------------------------------------*/
FoamFile
{
    version     2.0;
    format      ascii;
    class       polyBoundaryMesh;
    location    "constant/vegetation/polyMesh";
    object      boundary;
}
// * * * * * * * * * * * * * * * * * * * * * * * * * * * * * * * * * * * * * //

13
(
    left
    {
        type            mappedPatch;
        inGroups        List<word> 1(mappedPatch);
        nFaces          28;
        startFace       6475;
        sampleMode      nearestPatchFace;
        sampleRegion    air;
        samplePatch     left;
    }
    right
    {
        type            mappedPatch;
        inGroups        List<word> 1(mappedPatch);
        nFaces          0;
        startFace       6503;
        sampleMode      nearestPatchFace;
        sampleRegion    air;
        samplePatch     right;
    }
    back
    {
        type            mappedPatch;
        inGroups        List<word> 1(mappedPatch);
        nFaces          0;
        startFace       6503;
        sampleMode      nearestPatchFace;
        sampleRegion    air;
        samplePatch     back;
    }
    front
    {
        type            mappedPatch;
        inGroups        List<word> 1(mappedPatch);
        nFaces          0;
        startFace       6503;
        sampleMode      nearestPatchFace;
        sampleRegion    air;
        samplePatch     front;
    }
    bottom
    {
        type            mappedWall;
        inGroups        List<word> 
2
(
wall
mappedPatch
)
;
        nFaces          74;
        startFace       6503;
        sampleMode      nearestPatchFace;
        sampleRegion    air;
        samplePatch     bottom;
    }
    top
    {
        type            mappedPatch;
        inGroups        List<word> 1(mappedPatch);
        nFaces          24;
        startFace       6577;
        sampleMode      nearestPatchFace;
        sampleRegion    air;
        samplePatch     top;
    }
    tower
    {
        type            mappedWall;
        inGroups        List<word> 
2
(
wall
mappedPatch
)
;
        nFaces          450;
        startFace       6601;
        sampleMode      nearestPatchFace;
        sampleRegion    air;
        samplePatch     tower;
    }
    air_to_vegetation
    {
        type            mappedWall;
        inGroups        List<word> 
2
(
wall
mappedPatch
)
;
        nFaces          0;
        startFace       7051;
        sampleMode      nearestCell;
        sampleRegion    air;
        offsetMode      uniform;
        offset          (0 0 0);
    }
    procBoundary13to10
    {
        type            processor;
        inGroups        List<word> 1(processor);
        nFaces          24;
        startFace       7051;
        matchTolerance  0.0001;
        myProcNo        13;
        neighbProcNo    10;
    }
    procBoundary13to11
    {
        type            processor;
        inGroups        List<word> 1(processor);
        nFaces          3;
        startFace       7075;
        matchTolerance  0.0001;
        myProcNo        13;
        neighbProcNo    11;
    }
    procBoundary13to12
    {
        type            processor;
        inGroups        List<word> 1(processor);
        nFaces          226;
        startFace       7078;
        matchTolerance  0.0001;
        myProcNo        13;
        neighbProcNo    12;
    }
    procBoundary13to14
    {
        type            processor;
        inGroups        List<word> 1(processor);
        nFaces          215;
        startFace       7304;
        matchTolerance  0.0001;
        myProcNo        13;
        neighbProcNo    14;
    }
    procBoundary13to16
    {
        type            processor;
        inGroups        List<word> 1(processor);
        nFaces          24;
        startFace       7519;
        matchTolerance  0.0001;
        myProcNo        13;
        neighbProcNo    16;
    }
)

// ************************************************************************* //
