/*--------------------------------*- C++ -*----------------------------------*\
  =========                 |
  \\      /  F ield         | OpenFOAM: The Open Source CFD Toolbox
   \\    /   O peration     | Website:  https://openfoam.org
    \\  /    A nd           | Version:  8
     \\/     M anipulation  |
\*---------------------------------------------------------------------------*/
/*   Windows 32 and 64 bit porting by blueCAPE: http://www.bluecape.com.pt   *\
|  Based on Windows porting (2.0.x v4) by Symscape: http://www.symscape.com   |
\*---------------------------------------------------------------------------*/
FoamFile
{
    version     2.0;
    format      ascii;
    class       polyBoundaryMesh;
    location    "constant/vegetation/polyMesh";
    object      boundary;
}
// * * * * * * * * * * * * * * * * * * * * * * * * * * * * * * * * * * * * * //

16
(
    left
    {
        type            mappedPatch;
        inGroups        List<word> 1(mappedPatch);
        nFaces          0;
        startFace       6497;
        sampleMode      nearestPatchFace;
        sampleRegion    air;
        samplePatch     left;
    }
    right
    {
        type            mappedPatch;
        inGroups        List<word> 1(mappedPatch);
        nFaces          0;
        startFace       6497;
        sampleMode      nearestPatchFace;
        sampleRegion    air;
        samplePatch     right;
    }
    back
    {
        type            mappedPatch;
        inGroups        List<word> 1(mappedPatch);
        nFaces          0;
        startFace       6497;
        sampleMode      nearestPatchFace;
        sampleRegion    air;
        samplePatch     back;
    }
    front
    {
        type            mappedPatch;
        inGroups        List<word> 1(mappedPatch);
        nFaces          26;
        startFace       6497;
        sampleMode      nearestPatchFace;
        sampleRegion    air;
        samplePatch     front;
    }
    bottom
    {
        type            mappedWall;
        inGroups        List<word> 
2
(
wall
mappedPatch
)
;
        nFaces          51;
        startFace       6523;
        sampleMode      nearestPatchFace;
        sampleRegion    air;
        samplePatch     bottom;
    }
    top
    {
        type            mappedPatch;
        inGroups        List<word> 1(mappedPatch);
        nFaces          41;
        startFace       6574;
        sampleMode      nearestPatchFace;
        sampleRegion    air;
        samplePatch     top;
    }
    tower
    {
        type            mappedWall;
        inGroups        List<word> 
2
(
wall
mappedPatch
)
;
        nFaces          0;
        startFace       6615;
        sampleMode      nearestPatchFace;
        sampleRegion    air;
        samplePatch     tower;
    }
    air_to_vegetation
    {
        type            mappedWall;
        inGroups        List<word> 
2
(
wall
mappedPatch
)
;
        nFaces          438;
        startFace       6615;
        sampleMode      nearestCell;
        sampleRegion    air;
        offsetMode      uniform;
        offset          (0 0 0);
    }
    procBoundary19to5
    {
        type            processor;
        inGroups        List<word> 1(processor);
        nFaces          53;
        startFace       7053;
        matchTolerance  0.0001;
        myProcNo        19;
        neighbProcNo    5;
    }
    procBoundary19to7
    {
        type            processor;
        inGroups        List<word> 1(processor);
        nFaces          9;
        startFace       7106;
        matchTolerance  0.0001;
        myProcNo        19;
        neighbProcNo    7;
    }
    procBoundary19to11
    {
        type            processor;
        inGroups        List<word> 1(processor);
        nFaces          38;
        startFace       7115;
        matchTolerance  0.0001;
        myProcNo        19;
        neighbProcNo    11;
    }
    procBoundary19to14
    {
        type            processor;
        inGroups        List<word> 1(processor);
        nFaces          13;
        startFace       7153;
        matchTolerance  0.0001;
        myProcNo        19;
        neighbProcNo    14;
    }
    procBoundary19to15
    {
        type            processor;
        inGroups        List<word> 1(processor);
        nFaces          126;
        startFace       7166;
        matchTolerance  0.0001;
        myProcNo        19;
        neighbProcNo    15;
    }
    procBoundary19to16
    {
        type            processor;
        inGroups        List<word> 1(processor);
        nFaces          208;
        startFace       7292;
        matchTolerance  0.0001;
        myProcNo        19;
        neighbProcNo    16;
    }
    procBoundary19to17
    {
        type            processor;
        inGroups        List<word> 1(processor);
        nFaces          172;
        startFace       7500;
        matchTolerance  0.0001;
        myProcNo        19;
        neighbProcNo    17;
    }
    procBoundary19to18
    {
        type            processor;
        inGroups        List<word> 1(processor);
        nFaces          264;
        startFace       7672;
        matchTolerance  0.0001;
        myProcNo        19;
        neighbProcNo    18;
    }
)

// ************************************************************************* //
