/*--------------------------------*- C++ -*----------------------------------*\
  =========                 |
  \\      /  F ield         | OpenFOAM: The Open Source CFD Toolbox
   \\    /   O peration     | Website:  https://openfoam.org
    \\  /    A nd           | Version:  8
     \\/     M anipulation  |
\*---------------------------------------------------------------------------*/
/*   Windows 32 and 64 bit porting by blueCAPE: http://www.bluecape.com.pt   *\
|  Based on Windows porting (2.0.x v4) by Symscape: http://www.symscape.com   |
\*---------------------------------------------------------------------------*/
FoamFile
{
    version     2.0;
    format      ascii;
    class       scalarListList;
    location    "constant/air";
    object      divqrsw;
}
// * * * * * * * * * * * * * * * * * * * * * * * * * * * * * * * * * * * * * //


5
(

2246
(
0
0
0
0
0
0
0
0
0
0
0
0
0
0
0
0
0
0
0
0
0
0
0
0
0
0
0
0
0
0
0
0
0
0
0
0
0
0
0
0
0
0
0
0
0
0
0
0
0
0
0
0
0
0
0
0
0
0
0
0
0
0
0
0
0
0
0
0
0
0
0
0
0
0
0
0
0
0
0
0
0
0
0
0
0
0
0
0
0
0
0
0
0
0
0
0
0
0
0
0
0
0
0
0
0
0
0
0
0
0
0
0
0
0
0
0
0
0
0
0
-112.18986
0
-124.78052
0
0
0
-101.49979
0
0
-141.86925
0
0
0
0
0
0
0
0
-137.23664
0
0
0
0
0
0
0
0
0
0
0
0
0
-149.75448
0
0
0
-154.9326
0
0
0
0
0
0
0
0
-123.43382
-124.20553
0
0
0
0
0
0
-151.94998
0
0
0
0
0
0
0
0
0
0
0
0
0
0
0
0
0
0
0
0
0
0
0
0
0
0
0
0
0
0
0
0
0
0
0
0
0
0
0
0
0
0
0
0
0
0
0
0
0
0
0
0
0
0
0
0
0
0
0
0
0
0
0
0
0
0
0
0
0
0
0
0
0
0
0
0
0
0
0
0
0
0
0
0
0
0
0
0
0
0
0
0
0
0
0
0
0
0
0
0
0
0
0
0
0
0
0
0
0
0
0
0
0
0
0
0
0
0
0
0
0
0
0
0
0
0
0
0
0
0
0
0
0
0
0
0
0
0
0
0
0
0
0
0
0
0
0
0
0
0
0
0
0
0
0
0
0
0
0
0
0
0
0
0
0
0
0
0
0
0
0
0
0
0
0
0
0
0
0
-155.6981
-178.18003
0
0
0
-183.89119
-151.48168
0
0
0
0
0
0
0
-169.65297
-177.64701
0
0
0
-192.37054
-141.99074
0
0
0
0
0
0
0
0
-171.77154
0
0
-153.44777
0
0
0
0
0
0
0
0
0
0
0
0
-145.86243
0
0
0
0
0
0
-155.87261
0
0
-91.093737
0
0
0
0
0
0
0
0
0
0
0
0
0
0
0
0
0
0
0
0
0
0
0
0
0
0
0
0
0
0
0
0
0
0
0
0
0
0
0
0
0
0
0
0
0
0
0
0
0
0
0
0
0
0
0
0
0
0
0
0
0
0
0
0
0
0
0
0
0
0
0
0
0
0
0
0
0
0
0
0
0
0
0
0
0
0
-68.122109
0
0
-60.900271
-68.546417
0
-62.464596
-101.14312
-67.297568
0
0
0
0
0
0
0
0
0
0
0
0
0
0
-51.435536
-45.935166
0
0
0
0
0
-83.415394
0
0
0
-123.98417
-71.413283
0
0
-80.550166
-123.97502
-132.39852
-69.7141
-102.55278
-126.58168
-70.57194
-103.62599
-72.90414
-131.63966
-96.382352
0
0
0
-177.01818
0
0
-182.35151
-144.48812
0
0
-139.10617
-78.566757
-49.042226
-52.369134
-71.373355
0
0
0
-162.34018
0
-94.9815
-144.74173
-135.4114
-147.05271
-127.45085
-92.464284
-181.9693
0
0
0
0
0
-191.51059
0
0
0
-134.95587
-188.02114
0
-223.0221
0
0
0
0
0
-144.96804
0
-217.28111
0
0
-168.74327
0
-204.0142
0
0
0
0
0
0
0
0
0
0
0
0
0
0
0
0
0
0
0
-157.96276
0
-195.82829
0
-200.99267
-170.85332
-151.27459
-233.19421
-174.89349
-229.15308
-187.38963
0
0
0
-134.57974
0
0
-174.93897
-139.69876
0
0
0
0
0
-117.03001
0
0
0
-104.94948
0
0
0
0
-127.05098
0
-179.87229
-152.30042
-188.92891
-218.95261
-188.94546
0
-201.81783
0
-206.39652
0
-165.47372
0
0
-66.097297
0
0
0
0
0
-53.376417
0
0
0
0
0
0
0
0
0
-170.65555
-66.02068
0
-133.64042
0
0
0
0
-140.26953
0
0
-55.989641
-117.17031
0
0
0
0
0
0
0
0
0
0
-180.49153
-209.94114
0
-146.3781
0
0
0
0
0
0
0
0
0
0
-175.90517
0
0
-110.09639
0
0
0
0
0
0
0
0
0
0
0
0
0
0
0
0
0
0
0
0
0
0
0
0
0
0
0
0
0
0
0
0
0
0
0
0
0
0
0
0
0
0
0
0
0
0
0
0
0
0
0
0
0
0
0
0
0
0
0
0
0
0
0
0
0
0
0
0
0
0
0
0
0
0
0
0
0
0
0
0
0
0
0
0
0
0
0
0
0
0
0
0
0
0
0
0
0
0
0
0
0
0
0
0
0
0
0
0
0
0
0
0
0
0
-56.774208
-63.454226
-74.083689
-44.967819
-95.33759
-114.82855
-93.606509
-111.34497
-92.14254
-113.62755
-99.425378
-118.50104
0
0
-93.915043
-146.1581
-138.61759
-103.0007
-57.275289
-56.833949
-69.217619
-99.310526
-75.470857
-88.061497
-86.560853
-127.30359
-151.15658
-139.7844
-146.12501
-155.19397
-138.71036
-158.7563
-160.15347
-133.20237
-136.99999
-160.39298
-152.33567
-136.65284
-161.98539
0
0
0
0
0
0
0
0
0
0
0
0
0
0
0
0
0
-127.40744
-156.45116
-115.99367
-157.62668
0
0
0
0
0
0
-89.954605
0
0
0
0
0
0
0
0
0
0
0
0
0
0
0
0
0
0
0
0
0
0
0
0
0
0
0
0
-147.08609
-155.53562
-149.53446
-178.75944
-173.43833
-169.41732
-175.63668
-107.6592
0
-92.563998
0
-107.09228
0
-99.386287
-87.838388
-111.58419
-102.02782
-135.77933
-104.86311
-95.905172
-112.77627
0
0
0
0
-128.95366
-132.00439
-101.41216
-134.99485
-110.7794
-112.77467
-146.20274
0
0
0
0
0
0
-182.01526
-155.13809
-179.70693
-159.32697
-181.17176
-180.19575
-165.21599
0
0
0
0
0
0
0
0
0
0
0
0
0
0
0
0
0
0
-173.40561
-193.54449
-160.81779
-139.84924
-146.13926
-177.47703
-187.12508
-165.95979
-152.15097
-172.70408
-165.48997
-160.72049
-165.96509
-153.78454
0
0
0
0
0
0
0
-99.447428
0
0
0
0
0
0
-101.18394
0
0
0
0
0
-86.804339
-168.51561
-171.20649
-176.85202
-158.55173
-164.73308
-157.92665
-170.63627
-172.83149
-132.72681
-160.8256
-196.60703
-182.99458
-141.37233
-182.84217
-168.86412
-117.04022
-185.30088
-196.15974
-207.66954
-137.02714
-152.65159
-166.53676
-136.85334
-189.53175
-179.60111
-160.31014
-128.67091
-205.38547
0
0
0
0
0
0
0
0
0
0
0
0
0
0
-184.12884
-207.6466
-197.91676
-155.71906
-171.80565
-221.84661
-154.0371
-146.31871
-173.23225
-166.68496
0
-109.16926
-192.41291
-122.47163
0
0
0
0
0
0
0
0
0
0
0
0
0
0
0
0
0
0
0
0
0
0
-119.19829
-167.15298
-160.70657
-131.60606
0
-166.13603
0
-141.52263
-167.30372
-160.30065
-148.73331
-164.84571
0
0
0
0
0
0
0
0
0
-160.10773
0
0
0
0
0
-131.55831
0
0
0
0
0
0
0
0
0
0
0
0
0
0
0
0
0
0
-99.721228
-138.14587
-132.36008
0
0
-100.64168
0
0
-118.75717
0
0
0
0
-54.997095
0
0
-65.976728
-96.215955
-73.601642
-84.566494
0
0
0
0
0
0
0
-49.050205
0
-66.357363
0
-51.904023
0
-63.483296
-45.959932
-41.64114
-38.471896
-54.421921
-57.204496
-74.272872
-61.505698
-50.398965
-48.861051
-69.408402
-63.74832
-78.17078
-67.79052
-69.894174
-65.767668
-66.824332
-64.005502
-81.92445
-91.976174
-100.19473
0
0
0
-103.64352
-98.496345
-76.827344
-76.210304
-61.521102
-66.650001
-62.768562
-75.461426
-82.092198
-90.84055
0
0
-99.809524
-69.521087
-91.242689
-104.49017
-79.917642
-61.352773
0
-74.894413
-61.91084
-64.055917
-92.802318
-39.619529
-54.267582
0
-57.093206
-42.786181
-50.387121
0
-41.033212
-41.38369
-50.93372
-52.454046
-50.514952
-40.925271
-40.850386
-38.294977
0
-58.177257
0
-49.418189
0
-42.741211
-100.35296
0
0
-86.834404
-109.07904
-79.839215
-123.17891
0
0
0
0
0
0
0
0
0
0
0
0
0
0
-89.164167
0
-80.778032
0
-79.091688
-91.867452
0
-106.04322
-140.76854
-103.84914
-113.40305
-100.87102
-119.67023
-117.08931
-95.472629
-85.833102
-74.633606
-87.617513
-82.251576
-88.443265
-102.27694
-84.373316
0
0
-90.236075
-90.681973
0
-76.991209
-71.556381
-96.305194
-83.160025
-119.89351
-123.80335
-108.541
-138.42496
-67.901228
-97.665529
-82.5315
-107.86106
-102.43531
-95.534008
-116.099
-114.85989
-109.34026
-96.377311
-129.53636
-162.39434
-157.14205
-137.47929
-107.98046
-153.84193
-98.638599
-117.37431
-88.902629
-139.41738
-118.26875
-75.203211
-46.896038
-63.197889
-57.393041
-98.359721
-104.91329
-79.250843
-122.91054
0
0
0
0
-138.97887
-157.63284
0
0
0
0
0
-147.53673
0
-151.95595
-152.68892
-187.49114
-188.04758
-176.9255
-168.47446
-168.02901
-186.59294
0
0
0
0
0
0
0
0
0
0
0
0
0
0
-140.24045
-173.53481
-183.05617
-139.57539
-158.92489
-193.29698
-112.15422
-135.77108
-169.95077
-133.34818
-131.22762
-160.3914
-122.18372
-142.20794
0
0
0
0
0
0
0
0
0
0
0
0
0
0
0
0
0
0
-119.54991
-120.59931
-111.39251
-122.93374
-130.16113
-123.35237
-163.06169
-126.07296
-153.93701
-114.14189
-136.28802
0
0
0
-115.21254
0
0
-114.3361
0
0
0
-131.09293
0
-120.24756
0
-131.01895
-165.71433
-174.50879
-149.47082
-149.41207
-157.86527
-146.61611
0
0
0
0
0
0
0
0
0
0
0
-109.02601
-132.91782
-133.02583
-122.42789
-111.14177
-112.47464
-127.37906
-135.26282
-112.61275
-124.72668
-125.73675
-165.57928
-145.11966
-152.17163
-168.58546
-175.8816
-173.92775
-182.23405
-123.63565
-138.65937
-138.79108
-156.63562
-170.20432
-146.30871
-170.50444
-143.19245
-168.94102
-111.07964
-157.58678
-130.24237
-121.74564
-177.80054
-164.67852
-198.86871
-167.96188
-161.25368
-142.17501
-187.88374
-187.15611
0
0
0
0
0
0
0
0
0
0
0
0
0
0
0
0
0
0
0
0
0
0
-154.60861
-144.48564
-158.71126
0
0
-114.27719
-144.28533
0
-102.46918
0
0
-121.01327
-122.50297
-123.38692
-101.88629
0
0
0
-101.67592
-114.79067
-163.63056
-136.54117
-132.59903
-159.61971
-137.50356
-154.61275
-162.30526
-174.59514
-179.66532
-206.39647
-142.84987
-161.46139
-167.42558
-187.46991
-134.35338
0
0
-109.53034
0
-119.5908
-118.41907
-184.59094
-181.89788
-192.35167
-222.71581
-175.25165
-188.37711
-194.35924
-127.26089
0
0
0
0
-96.190997
-101.82694
0
0
0
0
-146.15692
0
-153.80317
0
0
0
0
0
0
0
0
0
0
0
0
-91.393513
0
-144.05458
-160.85347
-131.52213
-165.56138
-131.8556
-148.48407
-174.60605
0
0
0
-93.133271
-72.22133
-94.718584
0
-145.28851
-195.17551
-168.29114
-190.35343
-141.21347
-163.28181
-185.07048
0
0
0
0
0
0
0
0
0
-114.57061
0
0
0
-112.10938
-96.869075
-115.38356
-190.4528
-119.18672
0
-148.69463
-141.71869
-115.7427
-161.20835
-166.25529
-207.9759
-110.82618
-170.74491
-164.60309
0
0
0
0
0
0
0
0
0
0
0
0
0
0
0
0
0
0
0
0
0
0
0
0
0
-116.17231
0
-120.56619
0
0
0
0
0
0
-117.77578
-115.18541
-109.462
-199.24609
-110.30195
-71.532327
-164.66158
-152.99764
0
0
-107.07173
0
0
0
-101.10827
-122.43376
-162.22987
-197.56336
-171.47667
-123.05758
-165.19135
-164.12393
0
0
0
0
0
0
-93.277015
-207.36315
-208.8417
-208.78503
-210.39829
-205.14845
-211.87077
-210.04554
-176.62002
-154.4202
-164.26905
-189.55142
-187.15945
-146.46113
-181.33011
-203.05415
-201.16768
-238.92733
-224.75156
-202.12706
-221.37335
-203.61496
-207.70236
-201.13323
-208.23411
-209.03227
-205.10158
-210.29027
-209.61949
0
0
0
0
-114.60157
0
-95.365809
0
0
0
0
0
0
0
0
-83.531984
0
-153.56956
-98.600768
0
-109.27729
0
0
0
0
0
0
0
0
-147.63546
-175.60781
-127.01414
-116.4025
-86.18925
-132.79262
0
0
-96.184438
-173.09047
0
0
-123.72581
0
0
0
0
0
0
0
0
0
0
0
0
0
0
0
-150.0846
0
0
0
-106.07856
0
0
0
0
0
0
0
0
0
0
0
-187.58409
-157.66367
-179.52051
-156.62905
-150.661
0
-137.44307
-178.36849
-164.50757
-177.35459
-162.90793
0
0
0
-168.03661
-93.376078
-142.72971
-129.35978
-204.21448
-139.15433
-198.94834
-201.0727
-180.49628
-210.92132
-173.74132
-196.14904
-175.03104
-154.51943
-178.08662
-174.52329
-192.82613
-182.05227
-205.58819
-193.39826
-206.88075
-177.97456
-195.17271
-196.97534
-201.90217
-217.04415
-200.23904
-208.64637
-206.34987
-209.35327
-193.10868
-210.69251
-172.21663
-208.4006
-135.50247
-214.34441
-165.59077
-209.77731
-155.55005
-108.19779
0
-112.77837
0
-113.70193
-33.880638
-105.98863
-179.61221
-149.60166
-207.97605
-198.15566
-165.69225
-204.29545
-163.54675
-103.94417
0
0
0
0
-85.279408
-95.111752
-180.02413
-205.23673
-177.86062
-209.79301
-175.61719
-175.6145
-205.76252
-105.76253
-80.552587
0
0
0
-101.12528
-95.068755
-172.63533
-194.48466
-192.80346
-121.54209
-204.33281
-143.82272
-162.61977
0
-84.888401
0
0
0
0
-83.56902
-72.432862
-81.471587
-65.83518
-71.709682
-79.788542
-60.904508
-89.016546
0
-104.07471
0
0
0
0
-86.300436
0
0
0
-66.52333
0
-79.281163
0
0
0
-55.678944
0
0
0
-68.650264
-38.979433
-42.603457
-51.919656
-56.837349
-40.129411
-48.3976
-45.419574
0
0
-53.374556
0
-40.022185
0
0
0
0
-43.379778
0
0
0
0
-103.76056
-111.96887
0
0
-119.20241
-90.970149
0
-162.67723
-155.11884
-159.43626
-182.76243
-183.6272
-132.62595
-176.87296
-111.77133
-82.393401
-78.228293
-73.757847
-94.762849
-91.239628
-93.350138
-98.0159
-104.25467
0
0
-87.748619
0
-111.28991
-141.93291
-160.42769
-149.56493
-99.170289
-176.46739
-114.24786
-122.96434
-85.345524
0
-58.559284
0
-71.653616
-72.244688
0
-117.34737
0
-118.23293
0
-121.55793
0
-123.80967
0
-125.14977
-140.28464
-127.55882
0
-122.10562
-116.01502
-72.195025
-105.2559
0
0
-81.490183
-91.862802
0
-68.153374
-46.152368
-66.228537
-63.625697
-54.983395
-53.384891
-81.022969
-94.748016
-145.37848
-86.188506
-102.26803
-75.419809
-108.1848
-124.73448
-52.932367
0
-49.918893
0
-41.75032
-62.922249
0
0
0
0
0
0
0
0
-182.58221
-177.73222
-179.08638
-183.43633
-159.71463
-188.06258
-190.26289
-183.65256
-197.5439
-215.37604
-169.54756
-179.83243
-202.25719
-179.0398
-141.28779
-121.24158
0
0
0
-127.80424
0
-173.10528
-103.51612
-180.26093
-191.40665
-140.12137
-199.74008
-155.13362
0
0
0
0
0
-131.96179
0
0
0
0
0
0
0
0
0
0
0
0
0
0
0
0
-117.42922
-174.07729
0
0
-127.61421
0
0
0
0
0
0
0
0
0
0
-160.85933
0
-127.50315
0
0
0
0
0
0
0
0
0
0
0
0
0
0
0
0
0
0
0
0
0
0
0
0
0
0
0
0
0
0
0
0
0
0
0
0
0
0
0
0
0
0
0
0
0
0
0
0
0
0
0
0
0
0
0
0
0
0
-127.3387
-165.85716
-150.11059
-141.51677
-118.03767
-161.103
-124.74513
0
0
0
0
0
0
0
0
0
0
0
0
0
0
0
0
0
0
0
0
0
-85.096106
0
0
0
0
0
0
-171.99501
-113.74789
-127.59813
-147.30786
-155.89559
0
0
0
0
0
0
0
0
0
0
0
0
0
0
0
0
0
0
0
0
0
0
0
0
0
0
0
0
0
0
0
0
0
-202.99514
-214.54091
-203.51008
-237.27255
-203.08505
-205.59341
-217.1709
)


2246
(
0
0
0
0
0
0
0
0
0
0
0
0
0
0
0
0
0
0
0
0
0
0
0
0
0
0
0
0
0
0
0
0
0
0
0
0
0
0
0
0
0
0
0
0
0
0
0
0
0
0
0
0
0
0
0
0
0
0
0
0
0
0
0
0
0
0
0
0
0
0
0
0
0
0
0
0
0
0
0
0
0
0
0
0
0
0
0
0
0
0
0
0
0
0
0
0
0
0
0
0
0
0
0
0
0
0
0
0
0
0
0
0
0
0
0
0
0
0
0
0
-87.956485
0
-82.707662
0
0
0
-79.886891
0
0
-99.336155
0
0
0
0
0
0
0
0
-109.42297
0
0
0
0
0
0
0
0
0
0
0
0
0
-121.8579
0
0
0
-116.25364
0
0
0
0
0
0
0
0
-88.6533
-90.012374
0
0
0
0
0
0
-112.11125
0
0
0
0
0
0
0
0
0
0
0
0
0
0
0
0
0
0
0
0
0
0
0
0
0
0
0
0
0
0
0
0
0
0
0
0
0
0
0
0
0
0
0
0
0
0
0
0
0
0
0
0
0
0
0
0
0
0
0
0
0
0
0
0
0
0
0
0
0
0
0
0
0
0
0
0
0
0
0
0
0
0
0
0
0
0
0
0
0
0
0
0
0
0
0
0
0
0
0
0
0
0
0
0
0
0
0
0
0
0
0
0
0
0
0
0
0
0
0
0
0
0
0
0
0
0
0
0
0
0
0
0
0
0
0
0
0
0
0
0
0
0
0
0
0
0
0
0
0
0
0
0
0
0
0
0
0
0
0
0
0
0
0
0
0
0
0
0
0
0
0
0
0
0
0
0
0
0
0
-157.42376
-126.38149
0
0
0
-165.67263
-88.730808
0
0
0
0
0
0
0
-151.85187
-134.72073
0
0
0
-175.36869
-137.21077
0
0
0
0
0
0
0
0
-120.55882
0
0
-99.474938
0
0
0
0
0
0
0
0
0
0
0
0
-107.50734
0
0
0
0
0
0
-119.83369
0
0
-82.696178
0
0
0
0
0
0
0
0
0
0
0
0
0
0
0
0
0
0
0
0
0
0
0
0
0
0
0
0
0
0
0
0
0
0
0
0
0
0
0
0
0
0
0
0
0
0
0
0
0
0
0
0
0
0
0
0
0
0
0
0
0
0
0
0
0
0
0
0
0
0
0
0
0
0
0
0
0
0
0
0
0
0
0
0
0
0
-105.46426
0
0
-73.808004
-122.89561
0
-47.411012
-86.425234
-66.795824
0
0
0
0
0
0
0
0
0
0
0
0
0
0
-38.943803
-50.271774
0
0
0
0
0
-98.013579
0
0
0
-126.00305
-85.511396
0
0
-123.45787
-107.53452
-128.00317
-81.679291
-96.612166
-95.362095
-56.101726
-94.700912
-71.635577
-125.38546
-72.636758
0
0
0
-168.39309
0
0
-158.3452
-148.56047
0
0
-86.14259
-82.027633
-40.372829
-52.772596
-57.077624
0
0
0
-166.0821
0
-109.58613
-117.17528
-90.245075
-135.71859
-136.15543
-105.39814
-169.9257
0
0
0
0
0
-168.9668
0
0
0
-118.24313
-160.95696
0
-188.38988
0
0
0
0
0
-142.05264
0
-180.06619
0
0
-153.29676
0
-174.47318
0
0
0
0
0
0
0
0
0
0
0
0
0
0
0
0
0
0
0
-128.8334
0
-181.30386
0
-174.28897
-135.11974
-128.4007
-181.0121
-160.57608
-180.14625
-176.98494
0
0
0
-118.74767
0
0
-161.47507
-121.16249
0
0
0
0
0
-105.77062
0
0
0
-82.485314
0
0
0
0
-114.62884
0
-162.06848
-149.41365
-183.51668
-177.93316
-157.19783
0
-177.28672
0
-176.76747
0
-143.2055
0
0
-47.948707
0
0
0
0
0
-38.21013
0
0
0
0
0
0
0
0
0
-116.78689
-48.118352
0
-76.852458
0
0
0
0
-87.895053
0
0
-38.831538
-64.683844
0
0
0
0
0
0
0
0
0
0
-140.12126
-160.01103
0
-132.12184
0
0
0
0
0
0
0
0
0
0
-142.33736
0
0
-100.00367
0
0
0
0
0
0
0
0
0
0
0
0
0
0
0
0
0
0
0
0
0
0
0
0
0
0
0
0
0
0
0
0
0
0
0
0
0
0
0
0
0
0
0
0
0
0
0
0
0
0
0
0
0
0
0
0
0
0
0
0
0
0
0
0
0
0
0
0
0
0
0
0
0
0
0
0
0
0
0
0
0
0
0
0
0
0
0
0
0
0
0
0
0
0
0
0
0
0
0
0
0
0
0
0
0
0
0
0
0
0
0
0
0
0
-93.282427
-131.93148
-155.44309
-86.089871
-72.885352
-87.872231
-72.390603
-88.599838
-72.51344
-88.001019
-72.411975
-72.019748
0
0
-103.98082
-153.51302
-127.86836
-116.72697
-89.312865
-102.52758
-109.98063
-158.59673
-142.2384
-159.0484
-151.82304
-88.186158
-108.68942
-95.968608
-158.27471
-165.87263
-147.87875
-167.32507
-136.68831
-104.03633
-111.04232
-132.69
-118.46453
-111.49027
-135.40384
0
0
0
0
0
0
0
0
0
0
0
0
0
0
0
0
0
-102.51121
-157.41524
-109.67604
-168.39363
0
0
0
0
0
0
-77.331172
0
0
0
0
0
0
0
0
0
0
0
0
0
0
0
0
0
0
0
0
0
0
0
0
0
0
0
0
-121.99342
-127.98798
-124.83065
-167.29769
-170.42667
-175.48062
-174.4167
-97.602293
0
-78.355235
0
-93.236845
0
-91.00432
-62.10863
-85.226552
-72.357691
-88.179246
-81.559716
-68.693866
-69.02036
0
0
0
0
-74.931214
-89.771899
-73.865754
-91.898369
-74.048172
-72.400874
-94.407483
0
0
0
0
0
0
-144.8399
-112.87448
-137.78724
-115.35348
-139.12049
-138.80018
-119.17847
0
0
0
0
0
0
0
0
0
0
0
0
0
0
0
0
0
0
-130.34355
-143.93395
-161.09617
-125.893
-134.66546
-143.05894
-133.71674
-125.01472
-111.3974
-142.61772
-115.28029
-136.2214
-111.3179
-128.96113
0
0
0
0
0
0
0
-97.530491
0
0
0
0
0
0
-95.796563
0
0
0
0
0
-100.89278
-137.61237
-169.18199
-158.58772
-141.91462
-144.97419
-147.82579
-145.07594
-122.04971
-102.93608
-98.26264
-121.82516
-115.31661
-114.44139
-126.58518
-154.17568
-100.00337
-161.45746
-167.97083
-174.47505
-121.5663
-134.39493
-173.61056
-112.46534
-157.02123
-142.3913
-157.84999
-110.20291
-169.54909
0
0
0
0
0
0
0
0
0
0
0
0
0
0
-180.31684
-179.83518
-169.57573
-154.95221
-161.98618
-185.83903
-147.40064
-144.08454
-152.37276
-150.97143
0
-95.968511
-169.47592
-110.52251
0
0
0
0
0
0
0
0
0
0
0
0
0
0
0
0
0
0
0
0
0
0
-92.289018
-120.72241
-107.18904
-100.57422
0
-116.98568
0
-116.3089
-113.32643
-105.71367
-105.68317
-119.85934
0
0
0
0
0
0
0
0
0
-141.54376
0
0
0
0
0
-109.26185
0
0
0
0
0
0
0
0
0
0
0
0
0
0
0
0
0
0
-80.385635
-116.21828
-100.96653
0
0
-94.292472
0
0
-105.53254
0
0
0
0
-106.20606
0
0
-89.475261
-123.68898
-81.504879
-149.39403
0
0
0
0
0
0
0
-54.746214
0
-74.702254
0
-62.54754
0
-68.052503
-74.806859
-55.701877
-54.772425
-99.130578
-78.701011
-95.545471
-74.730809
-64.403122
-64.95145
-85.896876
-97.983606
-73.510542
-90.695852
-114.33977
-84.829064
-90.170731
-65.704533
-92.674671
-75.252039
-77.461546
0
0
0
-92.404911
-66.330759
-58.659547
-57.912854
-47.341868
-48.3344
-47.758101
-59.075632
-58.355557
-82.119812
0
0
-96.045293
-80.028112
-92.462072
-96.867543
-60.503244
-58.873311
0
-46.840448
-65.595669
-50.881808
-55.312153
-43.296865
-72.572228
0
-73.023856
-55.275934
-55.068828
0
-32.233368
-31.585238
-39.512263
-38.846843
-38.773416
-33.380951
-30.674191
-32.188726
0
-38.240858
0
-40.724868
0
-29.2675
-76.183215
0
0
-89.978037
-112.28141
-82.15773
-112.34424
0
0
0
0
0
0
0
0
0
0
0
0
0
0
-73.273644
0
-86.686561
0
-73.522169
-90.150391
0
-114.49593
-142.87852
-110.35218
-114.88252
-105.65604
-128.3189
-117.96463
-102.14035
-103.39249
-84.152915
-95.763054
-95.513317
-93.409726
-114.26686
-69.085634
0
0
-77.688463
-87.770566
0
-56.796321
-97.741636
-108.05066
-111.29735
-152.65397
-169.5535
-158.30913
-152.45344
-114.89492
-133.09902
-123.00805
-138.13639
-127.08093
-142.68301
-126.56869
-115.67541
-125.07731
-123.97474
-138.31358
-132.81016
-140.68395
-131.49383
-106.79749
-140.58676
-96.078481
-120.58671
-83.789435
-135.04961
-112.19492
-104.68376
-59.022183
-102.15077
-64.835037
-109.61111
-114.91807
-74.525955
-137.59977
0
0
0
0
-114.89035
-117.29448
0
0
0
0
0
-120.32815
0
-119.91444
-111.75271
-155.49448
-140.846
-175.85824
-150.40992
-113.16081
-157.56052
0
0
0
0
0
0
0
0
0
0
0
0
0
0
-97.995224
-138.03304
-174.28855
-118.78687
-136.95481
-145.86878
-78.530152
-142.36006
-149.54933
-134.45584
-118.31174
-137.91608
-112.27979
-147.89313
0
0
0
0
0
0
0
0
0
0
0
0
0
0
0
0
0
0
-145.34739
-122.42009
-107.08182
-143.18524
-139.90878
-96.475443
-130.43634
-84.560457
-131.42674
-93.464482
-137.13335
0
0
0
-119.03722
0
0
-124.46667
0
0
0
-129.10114
0
-132.99238
0
-124.29559
-167.10443
-143.25058
-148.0923
-155.34978
-120.82063
-136.1858
0
0
0
0
0
0
0
0
0
0
0
-99.111039
-134.24341
-137.80127
-124.50313
-90.236538
-105.90539
-92.14404
-131.81919
-121.52117
-126.22754
-122.03214
-112.07186
-101.51053
-97.464474
-165.5026
-178.14879
-174.75641
-172.48621
-100.33849
-89.675619
-90.995397
-142.84199
-131.90335
-128.54029
-151.45265
-144.43415
-145.56103
-107.46389
-147.41425
-127.4069
-123.23666
-159.44246
-159.02661
-177.81171
-162.14984
-151.2623
-137.47251
-171.10642
-166.32038
0
0
0
0
0
0
0
0
0
0
0
0
0
0
0
0
0
0
0
0
0
0
-133.36366
-109.11923
-141.38832
0
0
-94.115158
-147.15058
0
-109.90476
0
0
-135.03313
-120.20453
-136.0748
-83.153518
0
0
0
-84.683307
-113.19148
-136.02692
-110.81837
-115.46246
-138.65082
-112.19567
-132.94742
-135.54945
-148.8205
-153.37313
-179.09699
-113.3269
-126.10804
-141.61179
-160.95686
-139.5624
0
0
-108.03423
0
-117.82996
-131.519
-152.75366
-153.04783
-166.84648
-197.65819
-148.26401
-157.9239
-166.52474
-142.59923
0
0
0
0
-78.337032
-105.34113
0
0
0
0
-122.76881
0
-150.37781
0
0
0
0
0
0
0
0
0
0
0
0
-74.262205
0
-114.77666
-157.69481
-117.40056
-162.52901
-115.82216
-125.58118
-178.21753
0
0
0
-67.651744
-34.303156
-68.731512
0
-112.98888
-160.95611
-129.34144
-184.1699
-91.596189
-133.27833
-188.6703
0
0
0
0
0
0
0
0
0
-84.027026
0
0
0
-85.544663
-81.211087
-104.99261
-174.26529
-91.438906
0
-123.29646
-125.4667
-93.439116
-125.75016
-140.33492
-185.71769
-87.380815
-140.51047
-137.39347
0
0
0
0
0
0
0
0
0
0
0
0
0
0
0
0
0
0
0
0
0
0
0
0
0
-92.458405
0
-87.460469
0
0
0
0
0
0
-76.674013
-82.124127
-90.396501
-164.27329
-90.027138
-53.959019
-122.45787
-122.27764
0
0
-91.979732
0
0
0
-93.056588
-100.119
-143.94861
-186.61269
-149.80303
-102.62412
-138.96225
-144.94628
0
0
0
0
0
0
-76.635193
-174.04099
-179.09511
-181.38221
-178.37736
-179.27617
-176.22112
-179.61978
-141.55249
-120.01505
-132.05119
-154.94302
-154.98585
-117.23707
-142.54356
-165.63748
-161.49431
-188.94035
-192.23775
-163.72407
-191.11973
-164.59032
-168.04224
-172.73752
-173.88995
-196.12095
-177.7539
-181.41206
-168.2877
0
0
0
0
-104.35677
0
-85.821207
0
0
0
0
0
0
0
0
-80.047644
0
-135.19345
-78.540026
0
-99.228101
0
0
0
0
0
0
0
0
-132.78741
-149.02415
-110.41443
-95.224307
-59.272882
-114.45313
0
0
-84.259074
-151.21626
0
0
-105.07853
0
0
0
0
0
0
0
0
0
0
0
0
0
0
0
-135.95334
0
0
0
-99.878008
0
0
0
0
0
0
0
0
0
0
0
-148.17238
-127.1421
-150.03185
-131.09924
-123.73956
0
-118.58145
-157.90095
-165.92333
-180.43113
-135.06614
0
0
0
-143.42295
-86.881985
-120.46212
-112.75801
-173.40234
-125.04435
-167.40311
-179.91164
-165.14376
-178.51728
-145.76258
-194.97664
-169.5686
-156.61774
-168.96496
-174.4416
-191.62122
-176.7018
-184.29968
-188.7739
-182.84699
-168.2023
-181.26835
-185.55379
-165.23038
-178.19102
-162.4473
-180.12485
-182.68309
-183.69217
-165.61563
-179.63078
-151.04317
-185.08786
-117.51076
-179.5969
-138.69065
-182.95037
-133.00348
-96.901603
0
-93.130482
0
-96.541572
-36.996046
-93.512455
-147.91783
-125.77328
-175.33
-179.28
-138.4096
-175.56507
-136.55335
-94.180435
0
0
0
0
-80.419131
-84.367673
-158.01061
-182.69417
-153.95575
-178.55432
-149.60164
-150.57948
-178.92725
-93.246228
-77.642299
0
0
0
-88.32019
-82.550155
-153.44015
-160.83869
-169.78974
-108.40755
-173.7193
-130.84161
-132.31898
0
-54.42346
0
0
0
0
-50.98637
-50.755146
-58.15029
-45.871362
-48.383165
-55.863275
-39.87943
-58.485322
0
-81.174232
0
0
0
0
-58.516609
0
0
0
-40.081671
0
-46.284063
0
0
0
-36.459797
0
0
0
-46.611993
-24.958013
-30.66846
-37.223389
-38.172028
-29.86273
-31.818029
-29.8691
0
0
-34.346038
0
-27.780327
0
0
0
0
-30.511274
0
0
0
0
-69.479785
-73.609514
0
0
-85.246297
-54.145788
0
-90.194854
-101.85679
-100.25816
-124.68932
-106.94768
-84.160202
-112.25434
-60.554105
-58.837199
-50.357387
-48.543294
-61.277496
-58.622357
-51.464907
-70.632734
-88.370287
0
0
-63.301529
0
-94.955885
-71.738863
-89.991267
-88.751091
-56.629467
-95.224547
-70.196469
-58.763094
-53.847077
0
-37.698443
0
-48.659634
-42.913155
0
-94.315091
0
-138.3672
0
-105.77538
0
-122.51415
0
-95.065592
-114.74407
-77.487867
0
-116.1308
-76.201719
-38.413811
-66.745887
0
0
-41.963523
-63.912292
0
-34.138498
-31.059575
-41.954587
-38.458772
-33.937369
-30.665068
-42.210641
-41.861289
-79.031826
-47.40209
-52.289592
-39.559269
-48.478843
-66.965363
-29.585878
0
-30.35683
0
-26.18296
-33.61383
0
0
0
0
0
0
0
0
-152.12242
-123.47113
-151.86349
-141.89682
-153.2203
-145.6017
-131.96892
-167.36783
-159.25629
-167.69257
-153.87013
-160.31117
-159.86018
-155.7222
-114.4951
-109.97654
0
0
0
-113.14932
0
-160.37153
-92.155085
-146.40111
-166.76585
-128.05863
-159.00583
-146.96774
0
0
0
0
0
-126.09525
0
0
0
0
0
0
0
0
0
0
0
0
0
0
0
0
-98.924997
-160.2201
0
0
-116.867
0
0
0
0
0
0
0
0
0
0
-148.22423
0
-104.91971
0
0
0
0
0
0
0
0
0
0
0
0
0
0
0
0
0
0
0
0
0
0
0
0
0
0
0
0
0
0
0
0
0
0
0
0
0
0
0
0
0
0
0
0
0
0
0
0
0
0
0
0
0
0
0
0
0
0
-99.155584
-130.74525
-113.24352
-107.91092
-107.05877
-134.42281
-117.33961
0
0
0
0
0
0
0
0
0
0
0
0
0
0
0
0
0
0
0
0
0
-50.175971
0
0
0
0
0
0
-149.25835
-96.563967
-140.17997
-109.8912
-146.66205
0
0
0
0
0
0
0
0
0
0
0
0
0
0
0
0
0
0
0
0
0
0
0
0
0
0
0
0
0
0
0
0
0
-169.99864
-179.88209
-166.43752
-191.2506
-166.69279
-172.49788
-182.56824
)


2246
(
0
0
0
0
0
0
0
0
0
0
0
0
0
0
0
0
0
0
0
0
0
0
0
0
0
0
0
0
0
0
0
0
0
0
0
0
0
0
0
0
0
0
0
0
0
0
0
0
0
0
0
0
0
0
0
0
0
0
0
0
0
0
0
0
0
0
0
0
0
0
0
0
0
0
0
0
0
0
0
0
0
0
0
0
0
0
0
0
0
0
0
0
0
0
0
0
0
0
0
0
0
0
0
0
0
0
0
0
0
0
0
0
0
0
0
0
0
0
0
0
-75.638356
0
-97.5194
0
0
0
-77.641615
0
0
-109.69103
0
0
0
0
0
0
0
0
-93.149824
0
0
0
0
0
0
0
0
0
0
0
0
0
-110.30013
0
0
0
-111.00236
0
0
0
0
0
0
0
0
-73.322131
-77.085551
0
0
0
0
0
0
-96.88527
0
0
0
0
0
0
0
0
0
0
0
0
0
0
0
0
0
0
0
0
0
0
0
0
0
0
0
0
0
0
0
0
0
0
0
0
0
0
0
0
0
0
0
0
0
0
0
0
0
0
0
0
0
0
0
0
0
0
0
0
0
0
0
0
0
0
0
0
0
0
0
0
0
0
0
0
0
0
0
0
0
0
0
0
0
0
0
0
0
0
0
0
0
0
0
0
0
0
0
0
0
0
0
0
0
0
0
0
0
0
0
0
0
0
0
0
0
0
0
0
0
0
0
0
0
0
0
0
0
0
0
0
0
0
0
0
0
0
0
0
0
0
0
0
0
0
0
0
0
0
0
0
0
0
0
0
0
0
0
0
0
0
0
0
0
0
0
0
0
0
0
0
0
0
0
0
0
0
0
-163.72192
-121.07297
0
0
0
-173.89992
-98.005406
0
0
0
0
0
0
0
-152.41651
-132.17855
0
0
0
-169.77326
-138.25508
0
0
0
0
0
0
0
0
-98.441351
0
0
-74.688817
0
0
0
0
0
0
0
0
0
0
0
0
-92.079187
0
0
0
0
0
0
-106.42842
0
0
-82.150887
0
0
0
0
0
0
0
0
0
0
0
0
0
0
0
0
0
0
0
0
0
0
0
0
0
0
0
0
0
0
0
0
0
0
0
0
0
0
0
0
0
0
0
0
0
0
0
0
0
0
0
0
0
0
0
0
0
0
0
0
0
0
0
0
0
0
0
0
0
0
0
0
0
0
0
0
0
0
0
0
0
0
0
0
0
0
-87.315589
0
0
-114.21904
-120.43482
0
-47.061974
-96.922561
-72.267529
0
0
0
0
0
0
0
0
0
0
0
0
0
0
-39.943013
-66.945636
0
0
0
0
0
-81.341631
0
0
0
-128.9853
-117.49002
0
0
-108.04517
-108.08305
-134.0991
-136.31453
-103.76038
-95.847335
-57.445329
-104.98546
-78.639958
-131.35457
-74.58995
0
0
0
-166.2208
0
0
-167.1939
-158.12842
0
0
-92.746697
-85.781211
-43.962071
-67.748977
-59.021084
0
0
0
-175.26049
0
-100.49997
-119.61713
-104.44979
-143.68157
-149.04404
-142.11781
-176.95682
0
0
0
0
0
-160.33821
0
0
0
-132.17765
-184.89986
0
-202.63548
0
0
0
0
0
-151.69864
0
-187.29807
0
0
-157.46297
0
-182.82843
0
0
0
0
0
0
0
0
0
0
0
0
0
0
0
0
0
0
0
-138.82172
0
-172.1162
0
-176.62579
-125.92179
-137.46188
-181.21867
-162.41416
-197.47749
-166.18665
0
0
0
-127.924
0
0
-167.21899
-131.53537
0
0
0
0
0
-110.39455
0
0
0
-99.700762
0
0
0
0
-101.30625
0
-161.08921
-156.79586
-188.35092
-185.46304
-162.26999
0
-167.64496
0
-185.07499
0
-148.03978
0
0
-39.861067
0
0
0
0
0
-34.057491
0
0
0
0
0
0
0
0
0
-99.672458
-42.098133
0
-62.176886
0
0
0
0
-70.444947
0
0
-35.95807
-56.180657
0
0
0
0
0
0
0
0
0
0
-117.26216
-163.83028
0
-128.473
0
0
0
0
0
0
0
0
0
0
-157.25152
0
0
-107.29241
0
0
0
0
0
0
0
0
0
0
0
0
0
0
0
0
0
0
0
0
0
0
0
0
0
0
0
0
0
0
0
0
0
0
0
0
0
0
0
0
0
0
0
0
0
0
0
0
0
0
0
0
0
0
0
0
0
0
0
0
0
0
0
0
0
0
0
0
0
0
0
0
0
0
0
0
0
0
0
0
0
0
0
0
0
0
0
0
0
0
0
0
0
0
0
0
0
0
0
0
0
0
0
0
0
0
0
0
0
0
0
0
0
0
-101.15487
-145.0944
-139.18105
-91.877326
-76.65801
-78.260285
-64.14823
-85.852014
-74.34954
-91.51918
-64.782499
-83.952542
0
0
-117.49393
-161.21724
-159.65037
-108.53246
0
-93.794943
-98.686729
-156.18959
-150.2693
-154.34382
-143.98617
-97.294767
-121.7859
-108.03323
-177.04671
-166.73412
-171.72281
-170.59646
-129.43807
-92.811601
-101.81059
-118.98945
-107.78338
-108.377
-121.45268
0
0
0
0
0
0
0
0
0
0
0
0
0
0
0
0
0
-91.083528
-165.0765
-96.522404
-168.77703
0
0
0
0
0
0
-87.763819
0
0
0
0
0
0
0
0
0
0
0
0
0
0
0
0
0
0
0
0
0
0
0
0
0
0
0
0
-99.307863
-114.35456
-102.65853
-165.23634
-171.97642
-170.74723
-166.57038
-98.189705
0
-83.663411
0
-97.753945
0
-97.577976
-48.890852
-67.079087
-57.916343
-68.949524
-58.426392
-56.492203
-54.795777
0
0
0
0
-61.230263
-80.434176
-59.786731
-75.316488
-63.897464
-59.239296
-77.296614
0
0
0
0
0
0
-120.50402
-98.959545
-119.99839
-94.374499
-117.93098
-123.13252
-96.088137
0
0
0
0
0
0
0
0
0
0
0
0
0
0
0
0
0
0
-149.01202
-151.77658
-167.86316
-145.27453
-153.34681
-157.57268
-142.34703
-138.49538
-117.22692
-147.14846
-112.26086
-150.23443
-112.55184
-138.36634
0
0
0
0
0
0
0
-88.902309
0
0
0
0
0
0
-83.666068
0
0
0
0
0
-97.499441
-160.03004
-175.23022
-167.87838
-159.40919
-175.15431
-159.82717
-170.30876
-133.76117
-124.12734
-105.69299
-109.07549
-109.25791
-132.79764
-127.48432
-180.47099
-105.0318
-172.64551
-172.55307
-192.80801
-121.89129
-131.82187
-164.88982
-122.34649
-159.62585
-143.8337
-171.31665
-125.68306
-166.21528
0
0
0
0
0
0
0
0
0
0
0
0
0
0
-170.23236
-179.26211
-171.0073
-142.51465
-170.9113
-177.82285
-135.42275
-147.13286
-174.68531
-150.20995
0
-109.56864
-169.81834
-128.82137
0
0
0
0
0
0
0
0
0
0
0
0
0
0
0
0
0
0
0
0
0
0
-81.436544
-92.988363
-85.817185
-85.449914
0
-86.020319
0
-64.680881
-82.776498
-90.373373
-88.118697
-77.079725
0
0
0
0
0
0
0
0
0
-143.90002
0
0
0
0
0
-121.82693
0
0
0
0
0
0
0
0
0
0
0
0
0
0
0
0
0
0
-80.979766
-113.13288
-84.934336
0
0
-84.160747
0
0
-104.81795
0
0
0
0
-84.136267
0
0
-114.56437
-158.45967
-124.28077
-153.43431
0
0
0
0
0
0
0
-84.72933
0
-116.02919
0
-98.698349
0
-88.764559
-133.84633
-115.84842
-103.67331
-161.79385
-129.14176
-147.19762
-114.96233
-112.87382
-109.086
-128.92289
-151.15636
-110.3771
-119.72527
-110.13125
-118.32894
-106.4899
-104.96544
-126.18187
-93.029755
-84.051577
0
0
0
-108.00893
-70.759126
-62.164813
-54.481705
-54.062471
-46.485001
-53.775698
-63.070083
-54.559249
-116.2061
0
0
-126.40854
-86.838906
-128.57418
-129.14599
-82.478264
-85.1966
0
-55.026888
-78.949666
-75.672227
-63.157623
-71.629793
-107.65905
0
-109.72108
-90.812889
-88.956394
0
-38.84922
-34.296717
-46.802432
-39.113436
-46.227276
-39.569793
-33.205799
-52.38809
0
-46.844126
0
-65.092596
0
-37.482878
-75.974644
0
0
-109.22972
-136.09955
-109.07936