/*--------------------------------*- C++ -*----------------------------------*\
  =========                 |
  \\      /  F ield         | OpenFOAM: The Open Source CFD Toolbox
   \\    /   O peration     | Website:  https://openfoam.org
    \\  /    A nd           | Version:  8
     \\/     M anipulation  |
\*---------------------------------------------------------------------------*/
/*   Windows 32 and 64 bit porting by blueCAPE: http://www.bluecape.com.pt   *\
|  Based on Windows porting (2.0.x v4) by Symscape: http://www.symscape.com   |
\*---------------------------------------------------------------------------*/
FoamFile
{
    version     2.0;
    format      ascii;
    class       scalarListList;
    location    "constant/vegetation";
    object      kcLAIboundary;
}
// * * * * * * * * * * * * * * * * * * * * * * * * * * * * * * * * * * * * * //


5
(

675
(
1000
0
1000
1000
0.036707496
0
0.063742134
1.3501137
1000
0
1.0623806
0.00013039108
0
1000
1.2914204
0.18066793
0.71759722
0.34333311
1000
0.50905367
0.068256086
1.3041371
0.70211599
0.071710452
1000
0
0.22254698
1000
0.30652864
0.04554717
1000
0.11128935
1.3520738
1.0489987
1000
0.078103467
1.2831781
1000
1.2441764
1000
1000
1000
1000
1000
1000
1000
1000
1000
1000
1000
1000
1000
1000
1000
1000
1000
1000
1000
1000
1000
1000
1000
1000
1000
1000
1000
1000
1000
1000
1000
1000
1000
1000
1000
1000
1000
1000
1000
1000
1000
1000
1000
1000
1000
1000
1000
1000
1000
1000
1000
1000
0
1000
1000
0
0
1000
1000
1000
1000
1000
0
0
1000
1000
1000
1000
1000
1000
1000
1000
1000
1000
1000
1000
1000
1000
1000
0
0
1000
1000
1000
1000
1000
1000
1000
1000
1000
1000
1000
1000
0
0
0
0
0
1000
0
0
1000
0
0
1000
0
0
1000
0
0
1000
0
1000
0
0
0
0
0
0
0
0
1000
1000
1000
0
0
0
0
0
0
0
0
0
0
0
0
0
0
0
1000
1000
1000
1000
0
0
0
0
1000
1000
1000
1000
1000
1000
0
0
0
1000
1000
1000
1000
1000
0
0
0
1000
1000
0
0
0
1000
0
0
0
1000
0
0
0
0
0
0
1000
1000
0
0
0
1000
0
0
0
0
0
0
0
0
0
0
0
0
0
0
0
0
0
0
0
0
0
0
0
0
0
0
0
0
0
0
0
1000
1000
1000
1000
1000
1000
1000
1000
1000
1000
1000
1000
1000
1000
1000
1000
1000
1000
1000
1000
1000
1000
1000
1000
1000
1000
1000
1000
1000
1000
1000
1000
1000
1000
1000
1000
1000
1000
1000
1000
1000
1000
1000
1000
1000
1000
1000
1000
1000
1000
1000
1000
1000
1000
1000
1000
1000
1000
1000
1000
1000
1000
1000
1000
1000
1000
1000
1000
1000
1000
1000
1000
1000
1000
1000
1000
1000
1000
1000
1000
1000
1000
1000
1000
1000
1000
1000
1000
1000
1000
1000
1000
1000
1000
1000
1000
1000
1000
1000
1000
1000
1000
1000
1000
1000
1000
1000
1000
1000
1000
1000
1000
1000
1000
1000
1000
1000
1000
1000
1000
1000
1000
1000
1000
1000
1000
1000
1000
1000
1000
1000
1000
1000
1000
1000
1000
1000
1000
1000
1000
1000
1000
1000
1000
1000
1000
1000
1000
1000
1000
1000
1000
1000
1000
1000
1000
1000
1000
1000
1000
1000
1000
1000
1000
1000
1000
1000
1000
1000
1000
1000
0
0
0
0
0
0
0
0
0
0
0
0
0
0
0
0
0
0
0
0
0
0
0
1000
1000
1000
1000
1000
1000
1000
1000
1000
1000
1000
1000
1000
1000
1000
1000
1000
1000
1000
1000
1000
1000
0
1000
1000
1000
1000
1000
1000
1000
1000
1000
1000
1000
1000
1000
1000
1000
0
0
1000
0
1000
1000
0
0
0
0
0
1000
0
1000
0
0
1000
0
0
1000
1000
1000
1000
0
0
0
1000
1000
1000
1000
1000
0
0
0
1000
0
0
0
1000
1000
0
0
0
1000
0
0
0
0
0
0
0
0
1000
0
0
1000
0
0
1000
0
1000
0
0
0
0
0
0
0
0
0
0
0
0
1000
0
0
0
1000
0
0
0
0
0
1000
1000
1000
0
0
0
0
0
0
1000
1000
1000
1000
1000
1000
1000
1000
1000
1000
1000
1000
1000
1000
1000
1000
1000
0
0
0
0
0
0
0
0
0
0
0
0
1000
0
0
1000
0
0
1000
0
0
1000
1000
1000
1000
1000
0
0
0
0
1000
0
0
1000
0
0
0
0
0
0
1000
0
0
0
1000
0
0
0
0
0.41160026
0.34266978
0.62564921
0.68085988
0.65243197
0.19938902
0.37019015
0.57307787
1.0366822
0.64823835
1.057042
0.60324999
0.58826498
0.25315236
0.30625232
1.1262282
0.47018992
0.95633784
0.57837244
0.70455341
1.0231038
0.37988283
0.38386409
0.52405198
0.33154066
0.89920733
0.40980669
0.82412626
0.85132126
)


675
(
0
4.7078281e-06
0
0.049142648
0.039746143
0
0.00013713985
1.0850949
0.47596031
0
0.88419459
0
0
0.031037458
0.67178171
0.048107819
1.1625877
0.34734334
0.23951769
0.33342464
0.1306939
1.0356989
0.98547231
0.082591953
0.22824355
0
0.041187384
0.00077618068
0.10800176
0.10347769
0.90946747
0.022540987
1.6691903
0.70754358
0.026100942
0.054169118
1.0367185
1.2235203
0.99034872
0
0.0001330174
0.00093641941
0.00021969127
0.00052600327
9.55315e-05
0
0
0
0
0
0
0
0
0
0
0
0
0
0
0
0
0
0
0
0
0
0
0
0
0
0
0
0
0
0
0
0
0
0
0
0
0
0
0
0
0
0
0
0
0
0
0
0
0
0
0
0
0
0
0
0
0
0
0
0
0
0
0
0
0
0
0
0
0
0
0
0
0
0
0
0
0
0
0
0
0
0
0
0
0
0
0
0
0
0
0
0
0
0
0
0
0
0
0
0
0
0
0
0
0
0
0
0
0
0
0
0
0
0
0
0
0
0
0
0
0
0
0
0
0
0
0
0
0
0
0
0
0
0
0
0
0
0
0
0
0
0
0
0
0
0
0
0
0
0
0
0
0
0
0
0
0
0
0
0
0
0
0
0
0
0
0
0
0
0
0
0
0
0
0
0
0
0
0
0
0
0
0
0
0
0
0
0
0
0
0
0
0
0
0
0
0
0
0
0
0
0
0
0
0
0
0
0
0
0
0
0
0
0
0
0.00017469449
0
0
1.7197049e-05
7.6825669e-05
5.8645889e-07
0.00013471303
4.6784759e-05
4.909792e-05
9.7264493e-05
4.2477983e-05
2.7270578e-05
0.00017417176
0.0001589226
7.9921945e-05
4.1025453e-05
0.00054151153
0.00025677501
0.00061384595
0.00045587796
1.4907172e-05
4.6294707e-05
7.6071693e-05
3.5949946e-05
5.9067725e-05
0.00022100077
0.00022809126
0.00028177005
0.0005910883
0.00014687447
2.5503331e-05
4.6519989e-05
0
0
0
0
0
0
0
0
0
0
0
0
0.00017582484
0.00012504472
0.00012852356
0.00045436472
0.00060561623
0.0005207994
0.00048102652
0.00047761235
0.00039268728
0
0
0
0
0
0.00018223677
0.00011037573
0.00012735626
0.00062160002
0.00030067448
0.00040630833
0.00037212939
0.00028631466
0.00022101837
0.0001338225
0.00037889368
0
0
0
0
0.00013876407
0.00015343335
6.3448613e-05
3.9049972e-05
2.2657122e-05
0.00017370037
0.00011046434
1.8568077e-05
2.6153374e-05
7.3659324e-05
0
0
0.00011759749
8.1203094e-05
0.00038840896
0.00017298359
0
0.00013912727
0.00019016167
0.00029104961
0.00014251269
6.0056002e-05
0.00025045032
0.00056017074
0.00042539502
0.00024126516
0
0.00025144708
0
0
0
0
0
9.9392958e-05
8.5070232e-05
0
0
0
0
0
0
0
4.756441e-05
0
0
0
6.2611614e-06
0
0.0001070533
0
0
6.3954849e-07
0
7.0457943e-06
1.3358158e-05
0.00025427197
0.00024007562
0.00038586022
2.1760922e-05
1.8478267e-05
7.3517404e-05
0.00011545249
0.00056181643
1.0962921e-05
0.0001452513
4.4751053e-05
0
0
0
1.7344308e-06
4.1046341e-06
3.9259164e-05
0
0
0
3.0479241e-05
0.00058181797
0.00044021503
0
0
0
0
0
0
0
0
0
0
0
0
0
0
0
0
0
0
0
0
0
0
0
0
0
0
0
0
0
0
0
0
0
0
0
0
0
0
0
0
0
0
0
0
0
0
0
0
0
0
0
0
0
0
0
0
0
0
0
0
0
0
0
0
0
0
0
0
0
0
0
0
0
0
0
0
0
0
0
0
0
0
0
0
0
0
0
0
0
0
0
0
0
0
0
0
0
0
0
0
0
0
0
0
0
0
0
0
0
0
0
0
0
0
0
0
0
0
0
0
0
0
0
0
0
0
0
0
0
0
0
0
0
0
0
0
0
0
0
0
0
0
0
0
0
0
0
0
0
0
0
0
0
0
0
0
0
0
0
0
0
0
0
0
0
0
0
0
0
0
0
0
0
0
0
0
0
0
0
0
0
0
0
0
0
0
0
0
0
0
0
0
0
0
0
0
0
0
0
0
0
0
0
0
0
0
0
0
0
0
0
0
0
0
0
0
0
0
0
0
0
0
0
0
0
0
0
0
0
0
0
0
0
0
0
0.5496707
0.44436459
0.91204584
0.64163012
0.79063914
0.25885268
0.51893902
0.46022116
0.87600394
0.9137446
1.1353711
0.91042879
0.55297682
0.37924205
0.45315803
0.90915816
0.45728753
1.2674948
0.77012878
0.92864031
1.2329557
0.5398436
0.62809018
0.45297411
0.42266284
1.0178604
0.57506869
0.77462039
0.71038255
)


675
(
0
0
0
0.051012756
0.008426696
0
0.027197714
1.2056469
0.66688495
0
0.46579252
0
0
0.33145486
0.52935581
0.040319022
1.0524945
0.12156879
0.39180849
0.40360364
0.072120458
1.3491955
0.85412559
0.028701098
0.24688587
0
0.085657503
0.46444075
0.030646245
0.053222255
1.3819134
0.019916946
1.3694285
0.65284937
0.42513605
0.030552757
0.62458231
1.5538707
1.1813951
0.031064301
0.025775568
0.4137752
0.30394466
0.12489974
0.10577212
0
0
0
0
0
0
0
0
0
0
0
0
0
0
0
0
0
0
0
0
0
0
0
0
0
0
0
0
0
0
0
0
0
0
0
0
0
0
0
0
0
0
0
0
0
0
0
0
0
0
0
0
0
0
0
0
0
0
0
0
0
0
0
0
0
0
0
0
0
0
0
0
0
0
0
0
0
0
0
0
0
0
0
0
0
0
0
0
0
0
0
0
0
0
0
0
0
0
0
0
0
0
0
0
0
0
0
0
0
0
0
0
0
0
0
0
0
0
0
0
0
0
0
0
0
0
0
0
0
0
0
0
0
0
0
0
0
0
0
0
0
0
0
0
0
0
0
0
0
0
0
0
0
0
0
0
0
0
0
0
0
0
0
0
0
0
0
0
0
0
0
0
0
0
0
0
0
0
0
0
0
0
0
0
0
0
0
0
0
0
0
0
0
0
0
0
0
0
0
0
0
0
0
0
0
0
0
0
0
0
0
0
0
0
0
0.046168232
0
0
0.0046801514
0.011386761
0.0027728215
0.047519334
0.0082415991
0.0020700668
0.0092359229
0.0046355648
0.0011436369
0.042516524
0.024617946
0.0025620053
0.00085815932
0.066064988
0.010891821
0.051177603
0.044054256
6.2143411e-05
0.0014620402
0.0010469757
0.0047373551
0.0037253784
0.011481405
0.0078147775
0.011732751
0.039242964
0.003766529
8.9552643e-05
0.0002725108
0
0
0
0
0
0
0
0
0
0
0
0
0.035806032
0.033010002
0.029612417
0.036092391
0.059633591
0.038937144
0.030159347
0.028164043
0.021378559
0
0
0
0
0
0.047335666
0.032634338
0.016914678
0.056933924
0.015697807
0.026840289
0.020950144
0.012867823
0.0082936586
0.025863616
0.025695315
0.0047214664
0.0033830627
0.00091384456
0.00021862164
0.033638287
0.033543653
0.016722376
0.0098656894
0.0011763497
0.053259211
0.035815739
0.01286448
0.012330783
0.021396287
0
0
0.021493795
0.018299936
0.026531748
0.0066665636
0.00042394137
0.0032747077
0.0050259723
0.013249906
0.0048595232
0.0016496658
0.033582461
0.063437983
0.046197654
0.028287388
0.0036131794
0.025648086
0
0
0
0.0023259289
0.0013369949
0.022025276
0.017331263
0
0
0.00052665656
0.00012574792
0
0
0
0.0050471377
0.0012139517
0.0003202882
0
0
0
0.016270579
0
0
0
0
0
0
0.021421317
0.017110536
0.019793958
0.0089879728
0.00022309347
0.0014430239
0.0030355914
0.045638168
2.8007865e-05
0.0043680086
0.00022332
0
0
0
0.00011695039
9.3133333e-06
0.00049403102
0
0
0
0.0085847473
0.050116935
0.031962097
0
0
0
0
0
0
0
0
0
0
0
0
0
0
0
0
0
0
0
0
0
0
0
0
0
0
0
0
0
0
0
0
0
0
0
0
0
0
0
0
0
0
0
0
0
0
0
0
0
0
0
0
0
0
0
0
0
0
0
0
0
0
0
0
0
0
0
0
0
0
0
0
0
0
0
0
0
0
0
0
0
0
0
0
0
0
0
0
0
0
0
0
0
0
0
0
0
0
0
0
0
0
0
0
0
0
0
0
0
0
0
0
0
0
0
0
0
0
0
0
0
0
0
0
0
0
0
0
0
0
0
0
0
0
0
0
0
0
0
0
0
0
0
0
0
0
0
0
0
0
0
0
0
0
0
0
0
0
0
0
0
0
0
0
0
0
0
0
0
0
0
0
0
0
0
0
0
0
0
0
0
0
0
0
0
0
0
0
0
0
0
0
0
0
0
0
0
0
0
0
0
0
0
0
0
0
0
0
0
0
0
0
0
0
0
0
0
0
0
0
0
0
0
0
0
0
0
0
0
0
0
0
0
0
0
0.48004457
0.42018071
0.84715926
0.75926659
0.90314441
0.2179696
0.46722914
0.58221165
1.0938844
0.80696877
1.3626807
0.83664333
0.60903441
0.37157349
0.36380356
1.0714343
0.47492169
1.1841297
0.64082727
0.72553631
1.1235708
0.41945779
0.56659499
0.50883199
0.33396539
1.0767104
0.49576533
0.75688649
0.7429299
)


675
(
0
0
0
0.026199852
0.0016785397
0
0.021319424
1.0481522
0.62617349
0
0.24416256
0
0
0.74283851
0.39202261
0.032222506
0.8662861
0.026107679
0.58996138
0.41828674
0.020781275
1.5763566
0.54463426
0.0048113299
0.12698067
0
0.050483842
1.1289948
0.0080368148
0.016495606
1.5669753
0.0090913332
0.88014786
0.51872655
0.95416619
0.0085158598
0.33330679
1.3939079
1.2433333
0.057518488
0.022887781
0.75778481
0.81739179
0.25322492
0.13864287
0
0
0
0
0
0
0
0
0
0
0
0
0
0
0
0
0
0
0
0
0
0
0
0
0
0
0
0
0
0
0
0
0
0
0
0
0
0
0
0
0
0
0
0
0
0
0
0
0
0
0
0
0
0
0
0
0
0
0
0
0
0
0
0
0
0
0
0
0
0
0
0
0
0
0
0
0
0
0
0
0
0
0
0
0
0
0
0
0
0
0
0
0
0
0
0
0
0
0
0
0
0
0
0
0
0
0
0
0
0
0
0
0
0
0
0
0
0
0
0
0
0
0
0
0
0
0
0
0
0
0
0
0
0
0
0
0
0
0
0
0
0
0
0
0
0
0
0
0
0
0
0
0
0
0
0
0
0
0
0
0
0
0
0
0
0
0
0
0
0
0
0
0
0
0
0
0
0
0
0
0
0
0
0
0
0
0
0
0
0
0
0
0
0
0
0
0
0
0
0
0
0
0
0
0
0
0
0
0
0
0
0
0
0
0
0.34686787
0
0
0.003066609
0.012118381
0.001552525
0.48273507
0.010768875
0
0.0078099596
0.0037352648
0
0.052690135
0.028968655
0.01122996
0.0018191667
0.62955249
0.022461853
0.12331577
0.11770566
0
0.0024587211
0.0025294431
0.016335747
0.011907603
0.036360617
0.016944723
0.036228033
0.10164326
0.0072513217
0
0
0
0
0
0
0
0
0
0
0
0
0
0
0.041286961
0.046086275
0.037882686
0.10211221
0.16387794
0.092531386
0.075806924
0.080759788
0.059622061
0
0
0
0
0
0.062161142
0.050716634
0.020046546
0.42800616
0.040686737
0.062226091
0.050709155
0.035565268
0.025357111
0.028393755
0.079201007
0.020705033
0.0048791476
0
0
0.086089604
0.040527218
0.065990639
0.0096573134
0
0.20857699
0.15581053
0.16800024
0.037487251
0.031493933
0
0
0.02756262
0.024241679
0.14390469
0.03323549
0.044794708
0.01072435
0.013187071
0.040802903
0.012746529
0.0033488007
0.29769848
0.40628934
0.16758046
0.091180556
0.016952799
0.072236487
0
0
0
0.0014382203
0.00070409156
0.024166832
0.017408512
0
0
0.00021382823
0
0
0
0
0.0040317549
0.00048253202
0
0
0
0
0.02015583
0
0
0
0
0
0
0.063542044
0.054191407
0.063098545
0.014601812
0.00065743811
0.0046788943
0.0082135468
0.1288133
0
0.0076978955
0
0
0
0
0
6.1867862e-05
0.0011069329
0
0
0
0.012256166
0.2752483
0.10387131
0
0
0
0
0
0
0
0
0
0
0
0
0
0
0
0
0
0
0
0
0
0
0
0
0
0
0
0
0
0
0
0
0
0
0
0
0
0
0
0
0
0
0
0
0
0
0
0
0
0
0
0
0
0
0
0
0
0
0
0
0
0
0
0
0
0
0
0
0
0
0
0
0
0
0
0
0
0
0
0
0
0
0
0
0
0
0
0
0
0
0
0
0
0
0
0
0
0
0
0
0
0
0
0
0
0
0
0
0
0
0
0
0
0
0
0
0
0
0
0
0
0
0
0
0
0
0
0
0
0
0
0
0
0
0
0
0
0
0
0
0
0
0
0
0
0
0
0
0
0
0
0
0
0
0
0
0
0
0
0
0
0
0
0
0
0
0
0
0
0
0
0
0
0
0
0
0
0
0
0
0
0
0
0
0
0
0
0
0
0
0
0
0
0
0
0
0
0
0
0
0
0
0
0
0
0
0
0
0
0
0
0
0
0
0
0
0
0
0
0
0
0
0
0
0
0
0
0
0
0
0
0
0
0
0
0.37933679
0.44752907
0.77734455
0.67553415
0.91840846
0.22460128
0.41510102
0.61272891
1.1531955
0.64408316
1.1064466
0.84874233
0.68049176
0.34927772
0.34745449
1.1349215
0.40091696
1.0435485
0.53915056
0.57804429
0.93357093
0.32317778
0.57742776
0.49128407
0.28264671
0.88439357
0.38674284
0.65387682
0.69970584
)


675
(
0
0
0
0.0031895798
0.00044646098
0
0.0043320338
0.77293392
0.53470617
0
0.20384151
0
0
1.3567192
0.39430617
0.0098115896
0.57170261
0.010873604
0.87732757
0.34232319
0.0034832033
1.3651964
0.25403643
0.0010917449
0.053088194
0
0.01394124
1.689036
0.021780576
0.0018850527
1.8942069
0.0070995545
0.56971624
0.42891687
1.6585968
0
0.2901555
1.387256
1.0679807
0.022790169
0.0044655578
0.92705042
1.2098518
0.15651733
0.041288454
0
0
0
0
0
0
0
0
0
0
0
0
0
0
0
0
0
0
0
0
0
0
0
0
0
0
0
0
0
0
0
0
0
0
0
0
0
0
0
0
0
0
0
0
0
0
0
0
0
0
0
0
0
0
0
0
0
0
0
0
0
0
0
0
0
0
0
0
0
0
0
0
0
0
0
0
0
0
0
0
0
0
0
0
0
0
0
0
0
0
0
0
0
0
0
0
0
0
0
0
0
0
0
0
0
0
0
0
0
0
0
0
0
0
0
0
0
0
0
0
0
0
0
0
0
0
0
0
0
0
0
0
0
0
0
0
0
0
0
0
0
0
0
0
0
0
0
0
0
0
0
0
0
0
0
0
0
0
0
0
0
0
0
0
0
0
0
0
0
0
0
0
0
0
0
0
0
0
0
0
0
0
0
0
0
0
0
0
0
0
0
0
0
0
0
0
0
0
0
0
0
0
0
0
0
0
0
0
0
0
0
0
0
0
0
0.5664437
0
0
0.0086256613
0.025063321
0.001739944
1.1752887
0.021786971
0
0
0
0
0.4054745
0.13146498
0.0028860332
0.0010843022
1.208369
0.014183719
0.49567297
0.52757268
0
0
0
0.060476546
0.015269458
0.041745054
0.011006905
0.015485836
0.38040217
0
0
0
0
0
0
0
0
0
0
0
0
0
0
0
0.27916901
0.38312939
0.26320983
0.40783513
0.61406659
0.34505608
0.26497092
0.26425028
0.18318739
0
0
0
0
0
0.50256591
0.473834
0.011890759
0.69766635
0.026987754
0.19937342
0.15488033
0.091218951
0.009773393
0.17570153
0.24908937
0.012055822
0.0066312972
0
0
0.30693678
0.3030874
0.028083985
0.01534981
0
0.64956898
0.61603794
0.50774303
0.26780509
0.27668602
0
0
0.12310032
0.15982392
0.12123024
0.01814685
0.22103652
0.0081876038
0.012831465
0.084513779
0.0096064447
0.0017541664
0.80017348
0.9151041
0.66458036
0.4366917
0.11078062
0.33481731
0
0
0
0.0037988922
0.00082891787
0.16376599
0.10398487
0
0
0
0
0
0
0
0
0
0
0
0
0
0.011453785
0
0
0
0
0
0
0.25921647
0.17722477
0.14210042
0.13444043
0.00021807464
0.0011648698
0.0053203616
0.4245028
0
0
0
0
0
0
0
0
0
0
0
0
0.084840538
0.5423352
0.23844649
0
0
0
0
0
0
0
0
0
0
0
0
0
0
0
0
0
0
0
0
0
0
0
0
0
0
0
0
0
0
0
0
0
0
0
0
0
0
0
0
0
0
0
0
0
0
0
0
0
0
0
0
0
0
0
0
0
0
0
0
0
0
0
0
0
0
0
0
0
0
0
0
0
0
0
0
0
0
0
0
0
0
0
0
0
0
0
0
0
0
0
0
0
0
0
0
0
0
0
0
0
0
0
0
0
0
0
0
0
0
0
0
0
0
0
0
0
0
0
0
0
0
0
0
0
0
0
0
0
0
0
0
0
0
0
0
0
0
0
0
0
0
0
0
0
0
0
0
0
0
0
0
0
0
0
0
0
0
0
0
0
0
0
0
0
0
0
0
0
0
0
0
0
0
0
0
0
0
0
0
0
0
0
0
0
0
0
0
0
0
0
0
0
0
0
0
0
0
0
0
0
0
0
0
0
0
0
0
0
0
0
0
0
0
0
0
0
0
0
0
0
0
0
0
0
0
0
0
0
0
0
0
0
0
0
0.44518816
0.57397842
0.95799023
0.76654549
1.1178493
0.28569791
0.50801851
0.82900282
1.3916352
0.55718343
0.89582683
0.98143708
0.83472569
0.46912751
0.45851538
1.368484
0.60727895
1.1581852
0.56555174
0.55601971
0.85881632
0.55959747
0.77063474
0.67892918
0.45509882
0.74773227
0.38671243
0.74068009
0.7385252
)

)


// ************************************************************************* //
