/*--------------------------------*- C++ -*----------------------------------*\
  =========                 |
  \\      /  F ield         | OpenFOAM: The Open Source CFD Toolbox
   \\    /   O peration     | Website:  https://openfoam.org
    \\  /    A nd           | Version:  8
     \\/     M anipulation  |
\*---------------------------------------------------------------------------*/
/*   Windows 32 and 64 bit porting by blueCAPE: http://www.bluecape.com.pt   *\
|  Based on Windows porting (2.0.x v4) by Symscape: http://www.symscape.com   |
\*---------------------------------------------------------------------------*/
FoamFile
{
    version     2.0;
    format      ascii;
    class       scalarListList;
    location    "constant/vegetation";
    object      skyViewCoeff;
}
// * * * * * * * * * * * * * * * * * * * * * * * * * * * * * * * * * * * * * //


5
(

675
(
302
302
302
302
302
302
302
302
302
302
302
302
302
302
302
302
302
302
302
302
302
302
302
302
302
302
302
302
302
302
302
302
302
302
302
302
302
302
302
302
302
302
302
302
302
151
151
151
151
151
151
151
151
151
151
151
151
151
151
151
151
151
151
151
151
151
151
151
151
151
151
151
151
151
151
151
151
151
151
151
151
151
151
151
151
151
151
151
151
151
151
302
151
151
302
302
151
151
151
151
151
301.99999
302
151
151
151
151
151
151
151
151
151
151
151
151
151
151
151
302
302
151
151
151
151
151
151
151
151
151
151
151
151
302
302
302
302
302
151
301.99999
301.99999
151
301.99999
301.99999
151
301.99999
301.99999
151
301.99999
301.99999
151
301.99999
151
301.99999
301.99999
302
302
301.99999
301.99999
301.99999
301.99999
151
151
151
302
302
302
302
302
302
302
302
302
302
302
302
302
302
302
151
151
151
151
302
302
302
302
151
151
151
151
151
151
302
302
302
151
151
151
151
151
302
302
302
151
151
301.99999
302
301.99999
151
302
301.99999
301.99999
151
301.99999
302
301.99999
301.99999
302
301.99999
151
151
301.99999
302
301.99999
151
301.99999
302
301.99999
302
302
302
302
302
302
302
302
302
302
302
302
302
302
302
302
302
302
302
301.99999
301.99999
301.99999
302
301.99999
302
302
302
302
151
151
151
151
151
151
151
151
151
151
151
151
151
151
151
151
151
151
151
151
151
151
151
151
151
151
151
151
151
151
151
151
151
151
151
151
151
151
151
151
151
151
151
151
151
151
151
151
151
151
151
151
151
151
151
151
151
151
151
151
151
151
151
151
151
151
151
151
151
151
151
151
151
151
151
151
151
151
151
151
151
151
151
151
151
151
151
151
151
151
151
151
151
151
151
151
151
151
151
151
151
151
151
151
151
151
151
151
151
151
151
151
151
151
151
151
151
151
151
151
151
151
151
151
151
151
151
151
151
151
151
151
151
151
151
151
151
151
151
151
151
151
151
151
151
151
151
151
151
151
151
151
151
151
151
151
151
151
151
151
151
151
151
151
151
151
151
151
151
151
151
302
302
302
302
302
301.99999
301.99999
302
302
302
302
302
302
302
301.99999
301.99999
302
302
302
302
302
302
302
151
151
151
151
151
151
151
151
151
151
151
151
151
151
151
151
151
151
151
151
151
151
301.99999
151
151
151
151
151
151
151
151
151
151
151
151
151
151
151
302
301.99999
151
301.99999
151
151
302
302
302
302
301.99999
151
301.99999
151
301.99999
301.99999
151
301.99999
301.99999
151
151
151
151
301.99999
302
301.99999
151
151
151
151
151
302
302
302
151
301.99999
302
301.99999
151
151
301.99999
302
301.99999
151
301.99999
302
301.99999
302
302
302
301.99999
301.99999
151
301.99999
301.99999
151
301.99999
301.99999
151
302
151
302
302
301.99999
301.99999
301.99999
301.99999
302
301.99999
301.99999
302
302
302
151
302
302
301.99999
151
301.99999
302
302
301.99999
301.99999
151
151
151
302
302
302
302
302
302
151
151
151
151
151
151
151
151
151
151
151
151
151
151
151
151
151
302
302
302
302
302
302
302
302
302
302
302
302
151
301.99999
301.99999
151
301.99999
301.99999
151
301.99999
301.99999
151
151
151
151
151
302
302
302
302
151
302
302
151
301.99999
302
301.99999
301.99999
302
301.99999
151
301.99999
302
301.99999
151
302
302
302
302
172.00019
212.43474
195.38894
162.12146
161.79788
226.23437
166.07016
159.87025
211.45291
227.97906
255.06874
156.51951
156.97397
270.70918
175.5475
224.88302
187.78467
252.82355
179.08252
186.53258
241.22612
181.90149
192.95023
195.11123
202.78226
179.08077
161.1344
163.0618
201.52161
)


675
(
383
383
383
383
383
383
383
383
383
383
383
383
383
383
383
383
383
383
383
383
383
383
383
383
383
383
383
383
383
383
383
383
383
383
383
383
383
383
383
383
383
383
383
383
383
191.5
191.5
191.5
191.5
191.5
191.5
191.5
191.5
191.5
191.5
191.5
191.5
191.5
191.5
191.5
191.5
191.5
191.5
191.5
191.5
191.5
191.5
191.5
191.5
191.5
191.5
191.5
191.5
191.5
191.5
191.5
191.5
191.5
191.5
191.5
191.5
191.5
191.5
191.5
191.5
191.5
191.5
191.5
191.5
191.5
191.5
383
191.5
191.5
383
383
191.5
191.5
191.5
191.5
191.5
382.99999
382.99999
191.5
191.5
191.5
191.5
191.5
191.5
191.5
191.5
191.5
191.5
191.5
191.5
191.5
191.5
191.5
383
382.99999
191.5
191.5
191.5
191.5
191.5
191.5
191.5
191.5
191.5
191.5
191.5
191.5
382.99999
382.99999
382.99999
382.99999
382.99999
191.5
382.99999
382.99999
191.5
382.99999
382.99999
191.5
382.99999
382.99999
191.5
382.99999
382.99999
191.5
382.99999
191.5
382.99999
382.99999
383
382.99999
382.99999
382.99999
382.99999
382.99999
191.5
191.5
191.5
383
383
383
383
383
383
383
383
383
383
383
383
383
383
383
191.5
191.5
191.5
191.5
383
383
383
383
191.5
191.5
191.5
191.5
191.5
191.5
383
383
383
191.5
191.5
191.5
191.5
191.5
383
383
383
191.5
191.5
382.99999
382.99999
382.99999
191.5
382.99999
382.99999
382.99999
191.5
382.99999
382.99999
382.99999
382.99999
382.99999
382.99999
191.5
191.5
382.99999
382.99999
382.99999
191.5
382.99999
382.99999
382.99999
383
383
383
383
383
383
383
383
383
383
383
383
383
383
383
383
383
383
382.99999
382.99999
382.99999
382.99999
382.99999
382.99999
383
383
383
383
191.5
191.5
191.5
191.5
191.5
191.5
191.5
191.5
191.5
191.5
191.5
191.5
191.5
191.5
191.5
191.5
191.5
191.5
191.5
191.5
191.5
191.5
191.5
191.5
191.5
191.5
191.5
191.5
191.5
191.5
191.5
191.5
191.5
191.5
191.5
191.5
191.5
191.5
191.5
191.5
191.5
191.5
191.5
191.5
191.5
191.5
191.5
191.5
191.5
191.5
191.5
191.5
191.5
191.5
191.5
191.5
191.5
191.5
191.5
191.5
191.5
191.5
191.5
191.5
191.5
191.5
191.5
191.5
191.5
191.5
191.5
191.5
191.5
191.5
191.5
191.5
191.5
191.5
191.5
191.5
191.5
191.5
191.5
191.5
191.5
191.5
191.5
191.5
191.5
191.5
191.5
191.5
191.5
191.5
191.5
191.5
191.5
191.5
191.5
191.5
191.5
191.5
191.5
191.5
191.5
191.5
191.5
191.5
191.5
191.5
191.5
191.5
191.5
191.5
191.5
191.5
191.5
191.5
191.5
191.5
191.5
191.5
191.5
191.5
191.5
191.5
191.5
191.5
191.5
191.5
191.5
191.5
191.5
191.5
191.5
191.5
191.5
191.5
191.5
191.5
191.5
191.5
191.5
191.5
191.5
191.5
191.5
191.5
191.5
191.5
191.5
191.5
191.5
191.5
191.5
191.5
191.5
191.5
191.5
191.5
191.5
191.5
191.5
191.5
191.5
191.5
191.5
191.5
191.5
191.5
191.5
383
383
382.99999
383
383
382.99999
382.99999
383
383
383
383
383
383
382.99999
382.99999
382.99999
383
383
383
383
383
383
383
191.5
191.5
191.5
191.5
191.5
191.5
191.5
191.5
191.5
191.5
191.5
191.5
191.5
191.5
191.5
191.5
191.5
191.5
191.5
191.5
191.5
191.5
382.99999
191.5
191.5
191.5
191.5
191.5
191.5
191.5
191.5
191.5
191.5
191.5
191.5
191.5
191.5
191.5
382.99999
382.99999
191.5
382.99999
191.5
191.5
383
382.99999
382.99999
382.99999
382.99999
191.5
382.99999
191.5
382.99999
382.99999
191.5
382.99999
382.99999
191.5
191.5
191.5
191.5
382.99999
382.99999
382.99999
191.5
191.5
191.5
191.5
191.5
383
383
383
191.5
382.99999
382.99999
382.99999
191.5
191.5
382.99999
382.99999
382.99999
191.5
382.99999
382.99999
382.99999
382.99999
383
382.99999
382.99999
382.99999
191.5
382.99999
382.99999
191.5
382.99999
382.99999
191.5
382.99999
191.5
382.99999
382.99999
382.99999
382.99999
382.99999
382.99999
382.99999
382.99999
382.99999
383
383
383
191.5
382.99999
382.99999
382.99999
191.5
382.99999
382.99999
382.99999
382.99999
382.99999
191.5
191.5
191.5
383
383
383
383
383
383
191.5
191.5
191.5
191.5
191.5
191.5
191.5
191.5
191.5
191.5
191.5
191.5
191.5
191.5
191.5
191.5
191.5
383
383
383
383
383
383
383
383
383
382.99999
382.99999
382.99999
191.5
382.99999
382.99999
191.5
382.99999
382.99999
191.5
382.99999
382.99999
191.5
191.5
191.5
191.5
191.5
383
383
383
383
191.5
383
383
191.5
382.99999
382.99999
382.99999
382.99999
382.99999
382.99999
191.5
382.99999
382.99999
382.99999
191.5
383
383
383
383
218.1327
269.41227
247.79459
205.60437
205.19399
286.91312
210.61216
202.74935
268.1671
289.12576
323.48121
198.49991
199.07627
343.3166
222.63143
285.19933
238.15075
320.63384
227.11459
236.56284
305.92584
230.68964
244.70178
247.44239
257.17088
227.11237
204.35257
206.79691
255.57211
)


675
(
334
334
334
334
334
334
334
334
334
334
334
334
334
334
334
334
334
334
334
334
334
334
334
334
334
334
334
334
334
334
334
334
334
334
334
334
334
334
334
334
334
334
334
334
334
167
167
167
167
167
167
167
167
167
167
167
167
167
167
167
167
167
167
167
167
167
167
167
167
167
167
167
167
167
167
167
167
167
167
167
167
167
167
167
167
167
167
167
167
167
167
334
167
167
334
334
167
167
167
167
167
333.99999
333.99999
167
167
167
167
167
167
167
167
167
167
167
167
167
167
167
334
333.99999
167
167
167
167
167
167
167
167
167
167
167
167
333.99999
333.99999
333.99999
333.99999
333.99999
167
333.99999
333.99999
167
333.99999
333.99999
167
333.99999
333.99999
167
333.99999
333.99999
167
333.99999
167
333.99999
333.99999
334
333.99999
333.99999
333.99999
333.99999
333.99999
167
167
167
334
334
334
334
334
334
334
334
334
334
334
334
334
334
334
167
167
167
167
334
334
334
334
167
167
167
167
167
167
334
334
334
167
167
167
167
167
334
334
334
167
167
333.99999
333.99999
333.99999
167
333.99999
333.99999
333.99999
167
333.99999
333.99999
333.99999
333.99999
333.99999
333.99999
167
167
333.99999
333.99999
333.99999
167
333.99999
333.99999
333.99999
334
334
334
334
334
334
334
334
334
334
334
334
334
334
334
334
334
334
333.99999
333.99999
333.99999
333.99999
333.99999
333.99999
334
334
334
334
167
167
167
167
167
167
167
167
167
167
167
167
167
167
167
167
167
167
167
167
167
167
167
167
167
167
167
167
167
167
167
167
167
167
167
167
167
167
167
167
167
167
167
167
167
167
167
167
167
167
167
167
167
167
167
167
167
167
167
167
167
167
167
167
167
167
167
167
167
167
167
167
167
167
167
167
167
167
167
167
167
167
167
167
167
167
167
167
167
167
167
167
167
167
167
167
167
167
167
167
167
167
167
167
167
167
167
167
167
167
167
167
167
167
167
167
167
167
167
167
167
167
167
167
167
167
167
167
167
167
167
167
167
167
167
167
167
167
167
167
167
167
167
167
167
167
167
167
167
167
167
167
167
167
167
167
167
167
167
167
167
167
167
167
167
167
167
167
167
167
167
334
334
333.99999
334
334
333.99999
333.99999
334
334
334
334
334
334
333.99999
333.99999
333.99999
334
334
334
334
334
334
334
167
167
167
167
167
167
167
167
167
167
167
167
167
167
167
167
167
167
167
167
167
167
333.99999
167
167
167
167
167
167
167
167
167
167
167
167
167
167
167
333.99999
333.99999
167
333.99999
167
167
334
333.99999
333.99999
333.99999
333.99999
167
333.99999
167
333.99999
333.99999
167
333.99999
333.99999
167
167
167
167
333.99999
333.99999
333.99999
167
167
167
167
167
334
334
334
167
333.99999
333.99999
333.99999
167
167
333.99999
333.99999
333.99999
167
333.99999
333.99999
333.99999
333.99999
334
333.99999
333.99999
333.99999
167
333.99999
333.99999
167
333.99999
333.99999
167
334
167
333.99999
333.99999
333.99999
333.99999
333.99999
333.99999
333.99999
333.99999
333.99999
334
334
334
167
333.99999
333.99999
333.99999
167
333.99999
333.99999
333.99999
333.99999
333.99999
167
167
167
334
334
334
334
334
334
167
167
167
167
167
167
167
167
167
167
167
167
167
167
167
167
167
334
334
334
334
334
334
334
334
334
333.99999
333.99999
333.99999
167
333.99999
333.99999
167
333.99999
333.99999
167
333.99999
333.99999
167
167
167
167
167
334
334
334
334
167
334
334
167
333.99999
333.99999
333.99999
333.99999
333.99999
333.99999
167
333.99999
333.99999
333.99999
167
334
334
334
334
190.22538
234.94438
216.09241
179.2999
178.94202
250.20622
183.667
176.81014
233.85852
252.13578
282.09589
173.10436
173.60698
299.39359
194.14856
248.71168
207.68238
279.6128
198.05815
206.29762
266.7865
201.17582
213.39529
215.78527
224.26912
198.05622
178.20824
180.33987
222.8749
)


675
(
273
273
273
273
273
273
273
273
273
273
273
273
273
273
273
273
273
273
273
273
273
273
273
273
273
273
273
273
273
273
273
273
273
273
273
273
273
273
273
273
273
273
273
273
273
136.5
136.5
136.5
136.5
136.5
136.5
136.5
136.5
136.5
136.5
136.5
136.5
136.5
136.5
136.5
136.5
136.5
136.5
136.5
136.5
136.5
136.5
136.5
136.5
136.5
136.5
136.5
136.5
136.5
136.5
136.5
136.5
136.5
136.5
136.5
136.5
136.5
136.5
136.5
136.5
136.5
136.5
136.5
136.5
136.5
136.5
273
136.5
136.5
273
273
136.5
136.5
136.5
136.5
136.5
273
273
136.5
136.5
136.5
136.5
136.5
136.5
136.5
136.5
136.5
136.5
136.5
136.5
136.5
136.5
136.5
273
273
136.5
136.5
136.5
136.5
136.5
136.5
136.5
136.5
136.5
136.5
136.5
136.5
273
273
273
273
273
136.5
273
273
136.5
273
273
136.5
273
273
136.5
273
273
136.5
273
136.5
273
273
273
273
273
273
273
273
136.5
136.5
136.5
273
273
273
273
273
273
273
273
273
273
273
273
273
273
273
136.5
136.5
136.5
136.5
273
273
273
273
136.5
136.5
136.5
136.5
136.5
136.5
273
273
273
136.5
136.5
136.5
136.5
136.5
273
273
273
136.5
136.5
273
273
273
136.5
273
273
273
136.5
273
273
273
273
273
273
136.5
136.5
273
273
273
136.5
273
273
273
273
273
273
273
273
273
273
273
273
273
273
273
273
273
273
273
273
273
273
273
273
273
273
273
273
273
273
273
136.5
136.5
136.5
136.5
136.5
136.5
136.5
136.5
136.5
136.5
136.5
136.5
136.5
136.5
136.5
136.5
136.5
136.5
136.5
136.5
136.5
136.5
136.5
136.5
136.5
136.5
136.5
136.5
136.5
136.5
136.5
136.5
136.5
136.5
136.5
136.5
136.5
136.5
136.5
136.5
136.5
136.5
136.5
136.5
136.5
136.5
136.5
136.5
136.5
136.5
136.5
136.5
136.5
136.5
136.5
136.5
136.5
136.5
136.5
136.5
136.5
136.5
136.5
136.5
136.5
136.5
136.5
136.5
136.5
136.5
136.5
136.5
136.5
136.5
136.5
136.5
136.5
136.5
136.5
136.5
136.5
136.5
136.5
136.5
136.5
136.5
136.5
136.5
136.5
136.5
136.5
136.5
136.5
136.5
136.5
136.5
136.5
136.5
136.5
136.5
136.5
136.5
136.5
136.5
136.5
136.5
136.5
136.5
136.5
136.5
136.5
136.5
136.5
136.5
136.5
136.5
136.5
136.5
136.5
136.5
136.5
136.5
136.5
136.5
136.5
136.5
136.5
136.5
136.5
136.5
136.5
136.5
136.5
136.5
136.5
136.5
136.5
136.5
136.5
136.5
136.5
136.5
136.5
136.5
136.5
136.5
136.5
136.5
136.5
136.5
136.5
136.5
136.5
136.5
136.5
136.5
136.5
136.5
136.5
136.5
136.5
136.5
136.5
136.5
136.5
136.5
136.5
136.5
136.5
136.5
136.5
273
273
273
273
273
273
273
273
273
273
273
273
273
273
273
273
273
273
273
273
273
273
273
136.5
136.5
136.5
136.5
136.5
136.5
136.5
136.5
136.5
136.5
136.5
136.5
136.5
136.5
136.5
136.5
136.5
136.5
136.5
136.5
136.5
136.5
273
136.5
136.5
136.5
136.5
136.5
136.5
136.5
136.5
136.5
136.5
136.5
136.5
136.5
136.5
136.5
273
273
136.5
273
136.5
136.5
273
273
273
273
273
136.5
273
136.5
273
273
136.5
273
273
136.5
136.5
136.5
136.5
273
273
273
136.5
136.5
136.5
136.5
136.5
273
273
273
136.5
273
273
273
136.5
136.5
273
273
273
136.5
273
273
273
273
273
273
273
273
136.5
273
273
136.5
273
273
136.5
273
136.5
273
273
273
273
273
273
273
273
273
273
273
273
136.5
273
273
273
136.5
273
273
273
273
273
136.5
136.5
136.5
273
273
273
273
273
273
136.5
136.5
136.5
136.5
136.5
136.5
136.5
136.5
136.5
136.5
136.5
136.5
136.5
136.5
136.5
136.5
136.5
273
273
273
273
273
273
273
273
273
273
273
273
136.5
273
273
136.5
273
273
136.5
273
273
136.5
136.5
136.5
136.5
136.5
273
273
273
273
136.5
273
273
136.5
273
273
273
273
273
273
136.5
273
273
273
136.5
273
273
273
273
155.48362
192.03538
176.62643
146.55351
146.26099
204.50988
150.12303
144.51847
191.14783
206.08703
230.57538
141.48949
141.90031
244.71392
158.69029
203.28829
169.75237
228.54579
161.88585
168.62051
218.06202
164.43413
174.4219
176.37539
183.30979
161.88427
145.66123
147.40354
182.1702
)


675
(
230
230
230
230
230
230
230
230
230
230
230
230
230
230
230
230
230
230
230
230
230
230
230
230
230
230
230
230
230
230
230
230
230
230
230
230
230
230
230
230
230
230
230
230
230
115
115
115
115
115
115
115
115
115
115
115
115
115
115
115
115
115
115
115
115
115
115
115
115
115
115
115
115
115
115
115
115
115
115
115
115
115
115
115
115
115
115
115
115
115
115
230
115
115
230
230
115
115
115
115
115
230
230
115
115
115
115
115
115
115
115
115
115
115
115
115
115
115
230
230
115
115
115
115
115
115
115
115
115
115
115
115
230
230
230
230
230
115
230
230
115
230
230
115
230
230
115
230
230
115
230
115
230
230
230
230
230
230
230
230
115
115
115
230
230
230
230
230
230
230
230
230
230
230
230
230
230
230
115
115
115
115
230
230
230
230
115
115
115
115
115
115
230
230
230
115
115
115
115
115
230
230
230
115
115
230
230
230
115
230
230
230
115
230
230
230
230
230
230
115
115
230
230
230
115
230
230
230
230
230
230
230
230
230
230
230
230
230
230
230
230
230
230
230
230
230
230
230
230
230
230
230
230
230
230
230
115
115
115
115
115
115
115
115
115
115
115
115
115
115
115
115
115
115
115
115
115
115
115
115
115
115
115
115
115
115
115
115
115
115
115
115
115
115
115
115
115
115
115
115
115
115
115
115
115
115
115
115
115
115
115
115
115
115
115
115
115
115
115
115
115
115
115
115
115
115
115
115
115
115
115
115
115
115
115
115
115
115
115
115
115
115
115
115
115
115
115
115
115
115
115
115
115
115
115
115
115
115
115
115
115
115
115
115
115
115
115
115
115
115
115
115
115
115
115
115
115
115
115
115
115
115
115
115
115
115
115
115
115
115
115
115
115
115
115
115
115
115
115
115
115
115
115
115
115
115
115
115
115
115
115
115
115
115
115
115
115
115
115
115
115
115
115
115
115
115
115
230
230
230
230
230
230
230
230
230
230
230
230
230
230
230
230
230
230
230
230
230
230
230
115
115
115
115
115
115
115
115
115
115
115
115
115
115
115
115
115
115
115
115
115
115
230
115
115
115
115
115
115
115
115
115
115
115
115
115
115
115
230
230
115
230
115
115
230
230
230
230
230
115
230
115
230
230
115
230
230
115
115
115
115
230
230
230
115
115
115
115
115
230
230
230
115
230
230
230
115
115
230
230
230
115
230
230
230
230
230
230
230
230
115
230
230
115
230
230
115
230
115
230
230
230
230
230
230
230
230
230
230
230
230
115
230
230
230
115
230
230
230
230
230
115
115
115
230
230
230
230
230
230
115
115
115
115
115
115
115
115
115
115
115
115
115
115
115
115
115
230
230
230
230
230
230
230
230
230
230
230
230
115
230
230
115
230
230
115
230
230
115
115
115
115
115
230
230
230
230
115
230
230
115
230
230
230
230
230
230
115
230
230
230
115
230
230
230
230
130.99353
161.78805
148.80615
123.46999
123.22355
172.2977
126.47727
121.75549
161.0403
173.62643
194.25765
119.2036
119.54972
206.16924
133.69512
171.26852
143.01481
192.54773
136.38735
142.06124
183.71526
138.53425
146.94885
148.59465
154.43682
136.38602
122.71825
124.18614
153.47672
)

)


// ************************************************************************* //
