/*--------------------------------*- C++ -*----------------------------------*\
  =========                 |
  \\      /  F ield         | OpenFOAM: The Open Source CFD Toolbox
   \\    /   O peration     | Website:  https://openfoam.org
    \\  /    A nd           | Version:  8
     \\/     M anipulation  |
\*---------------------------------------------------------------------------*/
/*   Windows 32 and 64 bit porting by blueCAPE: http://www.bluecape.com.pt   *\
|  Based on Windows porting (2.0.x v4) by Symscape: http://www.symscape.com   |
\*---------------------------------------------------------------------------*/
FoamFile
{
    version     2.0;
    format      ascii;
    class       scalarListList;
    location    "constant/vegetation";
    object      solarLoadFineFaces;
}
// * * * * * * * * * * * * * * * * * * * * * * * * * * * * * * * * * * * * * //


5
(

961
(
0
501.05251
0
0
0
0
0
0
501.05251
501.05251
0
501.05251
501.05251
129.87821
0
501.05251
173.17979
501.05251
501.05251
501.05251
0
129.87821
501.05251
501.05251
501.05251
501.05251
501.05251
501.05251
501.05251
501.05251
0
0
244.47515
0
0
0
501.05251
501.05251
501.05251
501.05251
501.05251
501.05251
129.87821
248.28938
173.17979
501.05251
501.05251
501.05251
501.05251
501.05251
129.87821
501.05251
501.05251
501.05251
501.05251
0
0
501.05251
501.05251
0
501.05251
501.05251
0
0
0
0
501.05251
501.05251
501.05251
501.05251
501.05251
129.62389
501.05251
501.05251
501.05251
501.05251
501.05251
501.05251
501.05251
175.51284
0
0
0
501.05251
501.05251
501.05251
129.62389
129.62389
129.62389
501.05251
144.39239
144.39239
501.05251
501.05251
501.05251
501.05251
244.47515
244.47515
135.98897
501.05251
501.05251
501.05251
0
0
0
501.05251
501.05251
501.05251
501.05251
501.05251
501.05251
501.05251
501.05251
501.05251
501.05251
501.05251
501.05251
501.05251
501.05251
501.05251
501.05251
501.05251
501.05251
501.05251
501.05251
501.05251
501.05251
501.05251
501.05251
501.05251
248.28938
501.05251
0
0
244.47515
0
0
0
501.05251
501.05251
501.05251
501.05251
501.05251
501.05251
0
0
0
501.05251
501.05251
501.05251
368.77336
401.08121
501.05251
0
0
0
0
0
0
501.05251
501.05251
501.05251
501.05251
501.05251
501.05251
501.05251
501.05251
501.05251
501.05251
467.99369
501.05251
501.05251
501.05251
501.05251
501.05251
501.05251
129.62389
501.05251
501.05251
501.05251
501.05251
501.05251
501.05251
501.05251
501.05251
501.05251
501.05251
501.05251
0
0
0
0
0
0
0
0
0
0
0
0
0
0
0
0
0
0
0
0
0
0
0
0
0
0
0
0
0
0
0
0
0
0
0
0
0
0
0
0
0
0
0
0
0
0
0
0
0
0
0
0
0
0
0
0
0
0
0
0
0
0
0
0
0
0
0
0
0
0
0
0
0
0
0
0
0
0
0
0
0
0
0
0
0
0
501.05251
0
0
501.05251
501.05251
0
0
0
0
0
501.05251
501.05251
0
0
0
0
0
0
0
0
0
0
0
0
0
0
0
501.05251
501.05251
0
0
0
0
0
0
0
0
0
0
0
0
501.05251
501.05251
501.05251
501.05251
501.05251
0
501.05251
501.05251
0
501.05251
501.05251
0
501.05251
501.05251
0
501.05251
501.05251
0
501.05251
0
501.05251
501.05251
501.05251
501.05251
501.05251
501.05251
501.05251
501.05251
0
0
0
501.05251
501.05251
501.05251
501.05251
501.05251
501.05251
501.05251
501.05251
501.05251
501.05251
501.05251
501.05251
501.05251
501.05251
501.05251
0
0
0
0
501.05251
501.05251
501.05251
501.05251
0
0
0
0
0
0
501.05251
501.05251
501.05251
0
0
0
0
0
501.05251
501.05251
501.05251
0
0
501.05251
501.05251
501.05251
0
501.05251
501.05251
501.05251
0
501.05251
501.05251
501.05251
501.05251
501.05251
501.05251
0
0
501.05251
501.05251
501.05251
0
501.05251
501.05251
501.05251
501.05251
501.05251
501.05251
501.05251
501.05251
501.05251
501.05251
501.05251
501.05251
501.05251
501.05251
501.05251
501.05251
501.05251
501.05251
501.05251
501.05251
501.05251
501.05251
501.05251
501.05251
501.05251
501.05251
501.05251
501.05251
501.05251
501.05251
501.05251
0
0
0
0
0
0
0
0
0
0
0
0
0
0
0
0
0
0
0
0
0
0
0
0
0
0
0
0
0
0
0
0
0
0
0
0
0
0
0
0
0
0
0
0
0
0
0
0
0
0
0
0
0
0
0
0
0
0
0
0
0
0
0
0
0
0
0
0
0
0
0
0
0
0
0
0
0
0
0
0
0
0
0
0
0
0
0
0
0
0
0
0
0
0
0
0
0
0
0
0
0
0
0
0
0
0
0
0
0
0
0
0
0
0
0
0
0
0
0
0
0
0
0
0
0
0
0
0
0
0
0
0
0
0
0
0
0
0
0
0
0
0
0
0
0
0
0
0
0
0
0
0
0
0
0
0
0
0
0
0
0
0
0
0
0
0
0
0
0
0
0
501.05251
501.05251
501.05251
501.05251
501.05251
501.05251
501.05251
501.05251
501.05251
501.05251
501.05251
501.05251
501.05251
501.05251
501.05251
501.05251
501.05251
501.05251
501.05251
501.05251
501.05251
501.05251
501.05251
0
0
0
0
0
0
0
0
0
0
0
0
0
0
0
0
0
0
0
0
0
0
501.05251
0
0
0
0
0
0
0
0
0
0
0
0
0
0
0
501.05251
501.05251
0
501.05251
0
0
501.05251
501.05251
501.05251
501.05251
501.05251
0
501.05251
0
501.05251
501.05251
0
501.05251
501.05251
0
0
0
0
501.05251
501.05251
501.05251
0
0
0
0
0
501.05251
501.05251
501.05251
0
501.05251
501.05251
501.05251
0
0
501.05251
501.05251
501.05251
0
501.05251
501.05251
501.05251
501.05251
501.05251
501.05251
501.05251
501.05251
0
501.05251
501.05251
0
501.05251
501.05251
0
501.05251
0
501.05251
501.05251
501.05251
501.05251
501.05251
501.05251
501.05251
501.05251
501.05251
501.05251
501.05251
501.05251
0
501.05251
501.05251
501.05251
0
501.05251
501.05251
501.05251
501.05251
501.05251
0
0
0
501.05251
501.05251
501.05251
501.05251
501.05251
501.05251
0
0
0
0
0
0
0
0
0
0
0
0
0
0
0
0
0
501.05251
501.05251
501.05251
501.05251
501.05251
501.05251
501.05251
501.05251
501.05251
501.05251
501.05251
501.05251
0
501.05251
501.05251
0
501.05251
501.05251
0
501.05251
501.05251
0
0
0
0
0
501.05251
501.05251
501.05251
501.05251
0
501.05251
501.05251
0
501.05251
501.05251
501.05251
501.05251
501.05251
501.05251
0
501.05251
501.05251
501.05251
0
501.05251
501.05251
501.05251
501.05251
0
220.03055
97.651902
9.4761221
309.73551
143.73386
165.5272
0
144.80037
1.0631024
144.50613
220.78659
110.98428
0
0
0
0
0
20.775283
140.32054
0
0
147.85643
127.89605
21.836794
216.38271
72.392374
42.234575
232.26131
233.55641
277.29024
363.74516
201.03648
239.06665
14.090708
0
0
0
0
0
0
97.332123
68.083393
0
17.19862
106.12856
270.18672
277.47469
308.72118
402.51644
303.73876
215.35412
81.206155
72.185434
163.77299
360.60454
0
0
0
368.97749
186.34407
0
25.996261
0
0
0
0
25.319467
56.962774
221.88387
197.23647
141.89313
278.94215
460.69748
0
0
448.303
319.16548
53.253069
185.05606
180.94236
49.161453
9.8350679
141.01776
254.3228
55.478702
0
0
0
14.427538
0
0
0
0
33.727875
8.0244288
45.006045
0
0
85.841448
237.07152
8.6838454
0
0
0
149.28294
131.22986
172.44168
113.35959
0
0
0
0
0
0
0
104.66551
76.457528
200.17896
34.169332
234.24228
441.43924
415.72636
68.262634
45.318592
15.847581
6.129723
19.797502
0
0
0
0
)


961
(
284.54856
284.54856
284.54856
284.54856
284.54856
284.54856
284.54856
284.54856
284.54856
284.54856
284.54856
284.54856
284.54856
96.140342
284.54856
284.54856
284.54856
284.54856
284.54856
284.54856
284.54856
284.54856
284.54856
284.54856
284.54856
284.54856
284.54856
88.971511
284.54856
284.54856
284.54856
284.54856
284.54856
284.54856
284.54856
284.54856
284.54856
284.54856
101.00854
284.54856
284.54856
284.54856
96.140342
106.21142
284.54856
284.54856
284.54856
284.54856
284.54856
284.54856
96.140342
284.54856
284.54856
284.54856
284.54856
284.54856
284.54856
284.54856
284.54856
284.54856
284.54856
284.54856
284.54856
284.54856
284.54856
284.54856
284.54856
284.54856
284.54856
284.54856
284.54856
284.54856
114.5987
284.54856
284.54856
284.54856
284.54856
284.54856
284.54856
284.54856
284.54856
284.54856
284.54856
284.54856
284.54856
284.54856
53.608821
53.608821
53.608821
83.712107
105.69475
105.69475
284.54856
284.54856
284.54856
88.971511
88.971511
88.971511
101.00854
284.54856
284.54856
284.54856
284.54856
284.54856
284.54856
284.54856
284.54856
284.54856
284.54856
284.54856
284.54856
284.54856
284.54856
284.54856
284.54856
284.54856
284.54856
284.54856
284.54856
284.54856
284.54856
284.54856
284.54856
284.54856
284.54856
284.54856
284.54856
106.21142
284.54856
284.54856
284.54856
284.54856
284.54856
284.54856
284.54856
284.54856
284.54856
284.54856
284.54856
284.54856
284.54856
284.54856
284.54856
284.54856
284.54856
284.54856
284.54856
284.54856
284.54856
284.54856
284.54856
273.06682
284.54856
284.54856
284.54856
284.54856
284.54856
284.54856
284.54856
284.54856
284.54856
284.54856
284.54856
284.54856
284.54856
284.54856
284.54856
284.54856
284.54856
249.68747
249.68747
105.69475
284.54856
284.54856
284.54856
284.54856
53.608821
284.54856
284.54856
284.54856
284.54856
284.54856
284.54856
284.54856
284.54856
284.54856
284.54856
284.54856
284.54856
284.54856
284.54856
284.54856
284.54856
284.54856
284.54856
284.54856
284.54856
284.54856
284.54856
284.54856
284.54856
284.54856
284.54856
284.54856
284.54856
284.54856
284.54856
284.54856
284.54856
284.54856
284.54856
284.54856
284.54856
284.54856
284.54856
284.54856
284.54856
284.54856
284.54856
284.54856
284.54856
284.54856
284.54856
284.54856
284.54856
284.54856
284.54856
284.54856
23.719504
23.719504
23.719504
23.719504
23.719504
23.719504
23.719504
23.719504
23.719504
23.719504
23.719504
23.719504
23.719504
23.719504
23.719504
23.719504
23.719504
23.719504
23.719504
23.719504
23.719504
23.719504
23.719504
23.719504
23.719504
23.719504
23.719504
23.719504
23.719504
23.719504
23.719504
23.719504
23.719504
23.719504
23.719504
23.719504
23.719504
23.719504
23.719504
23.719504
23.719504
23.719504
23.719504
23.719504
23.719504
23.719504
284.54856
23.719504
23.719504
284.54856
284.54856
23.719504
23.719504
23.719504
23.719504
23.719504
284.54856
284.54856
23.719504
23.719504
23.719504
23.719504
23.719504
23.719504
23.719504
23.719504
23.719504
23.719504
23.719504
23.719504
23.719504
23.719504
23.719504
284.54856
284.54856
23.719504
23.719504
23.719504
23.719504
23.719504
23.719504
23.719504
23.719504
23.719504
23.719504
23.719504
23.719504
284.54856
284.54856
284.54856
284.54856
284.54856
23.719504
284.54856
284.54856
23.719504
284.54856
284.54856
23.719504
284.54856
284.54856
23.719504
284.54856
284.54856
23.719504
284.54856
23.719504
284.54856
284.54856
284.54856
284.54856
284.54856
284.54856
284.54856
284.54856
23.719504
23.719504
23.719504
284.54856
284.54856
284.54856
284.54856
284.54856
284.54856
284.54856
284.54856
284.54856
284.54856
284.54856
284.54856
284.54856
284.54856
284.54856
23.719504
23.719504
23.719504
23.719504
284.54856
284.54856
284.54856
284.54856
23.719504
23.719504
23.719504
23.719504
23.719504
23.719504
284.54856
284.54856
284.54856
23.719504
23.719504
23.719504
23.719504
23.719504
284.54856
284.54856
284.54856
23.719504
23.719504
284.54856
284.54856
284.54856
23.719504
284.54856
284.54856
284.54856
23.719504
284.54856
284.54856
284.54856
284.54856
284.54856
284.54856
23.719504
23.719504
284.54856
284.54856
284.54856
23.719504
284.54856
284.54856
284.54856
284.54856
284.54856
284.54856
284.54856
284.54856
284.54856
284.54856
284.54856
284.54856
284.54856
284.54856
284.54856
284.54856
284.54856
284.54856
284.54856
284.54856
284.54856
284.54856
284.54856
284.54856
284.54856
284.54856
284.54856
284.54856
284.54856
284.54856
284.54856
23.719504
23.719504
23.719504
23.719504
23.719504
23.719504
23.719504
23.719504
23.719504
23.719504
23.719504
23.719504
23.719504
23.719504
23.719504
23.719504
23.719504
23.719504
23.719504
23.719504
23.719504
23.719504
23.719504
23.719504
23.719504
23.719504
23.719504
23.719504
23.719504
23.719504
23.719504
23.719504
23.719504
23.719504
23.719504
23.719504
23.719504
23.719504
23.719504
23.719504
23.719504
23.719504
23.719504
23.719504
23.719504
23.719504
23.719504
23.719504
23.719504
23.719504
23.719504
23.719504
23.719504
23.719504
23.719504
23.719504
23.719504
23.719504
23.719504
23.719504
23.719504
23.719504
23.719504
23.719504
23.719504
23.719504
23.719504
23.719504
23.719504
23.719504
23.719504
23.719504
23.719504
23.719504
23.719504
23.719504
23.719504
23.719504
23.719504
23.719504
23.719504
23.719504
23.719504
23.719504
23.719504
23.719504
23.719504
23.719504
23.719504
23.719504
23.719504
23.719504
23.719504
23.719504
23.719504
23.719504
23.719504
23.719504
23.719504
23.719504
23.719504
23.719504
23.719504
23.719504
23.719504
23.719504
23.719504
23.719504
23.719504
23.719504
23.719504
23.719504
23.719504
23.719504
23.719504
23.719504
23.719504
23.719504
23.719504
23.719504
23.719504
23.719504
23.719504
23.719504
23.719504
23.719504
23.719504
23.719504
23.719504
23.719504
23.719504
23.719504
23.719504
23.719504
23.719504
23.719504
23.719504
23.719504
23.719504
23.719504
23.719504
23.719504
23.719504
23.719504
23.719504
23.719504
23.719504
23.719504
23.719504
23.719504
23.719504
23.719504
23.719504
23.719504
23.719504
23.719504
23.719504
23.719504
23.719504
23.719504
23.719504
23.719504
23.719504
23.719504
23.719504
23.719504
23.719504
23.719504
23.719504
23.719504
23.719504
284.54856
284.54856
284.54856
284.54856
284.54856
284.54856
284.54856
284.54856
284.54856
284.54856
284.54856
284.54856
284.54856
284.54856
284.54856
284.54856
284.54856
284.54856
284.54856
284.54856
284.54856
284.54856
284.54856
23.719504
23.719504
23.719504
23.719504
23.719504
23.719504
23.719504
23.719504
23.719504
23.719504
23.719504
23.719504
23.719504
23.719504
23.719504
23.719504
23.719504
23.719504
23.719504
23.719504
23.719504
23.719504
284.54856
23.719504
23.719504
23.719504
23.719504
23.719504
23.719504
23.719504
23.719504
23.719504
23.719504
23.719504
23.719504
23.719504
23.719504
23.719504
284.54856
284.54856
23.719504
284.54856
23.719504
23.719504
284.54856
284.54856
284.54856
284.54856
284.54856
23.719504
284.54856
23.719504
284.54856
284.54856
23.719504
284.54856
284.54856
23.719504
23.719504
23.719504
23.719504
284.54856
284.54856
284.54856
23.719504
23.719504
23.719504
23.719504
23.719504
284.54856
284.54856
284.54856
23.719504
284.54856
284.54856
284.54856
23.719504
23.719504
284.54856
284.54856
284.54856
23.719504
284.54856
284.54856
284.54856
284.54856
284.54856
284.54856
284.54856
284.54856
23.719504
284.54856
284.54856
23.719504
284.54856
284.54856
23.719504
284.54856
23.719504
284.54856
284.54856
284.54856
284.54856
284.54856
284.54856
284.54856
284.54856
284.54856
284.54856
284.54856
284.54856
23.719504
284.54856
284.54856
284.54856
23.719504
284.54856
284.54856
284.54856
284.54856
284.54856
23.719504
23.719504
23.719504
284.54856
284.54856
284.54856
284.54856
284.54856
284.54856
23.719504
23.719504
23.719504
23.719504
23.719504
23.719504
23.719504
23.719504
23.719504
23.719504
23.719504
23.719504
23.719504
23.719504
23.719504
23.719504
23.719504
284.54856
284.54856
284.54856
284.54856
284.54856
284.54856
284.54856
284.54856
284.54856
284.54856
284.54856
284.54856
23.719504
284.54856
284.54856
23.719504
284.54856
284.54856
23.719504
284.54856
284.54856
23.719504
23.719504
23.719504
23.719504
23.719504
284.54856
284.54856
284.54856
284.54856
23.719504
284.54856
284.54856
23.719504
284.54856
284.54856
284.54856
284.54856
284.54856
284.54856
23.719504
284.54856
284.54856
284.54856
23.719504
284.54856
284.54856
284.54856
284.54856
35.743211
65.457947
0
58.02288
115.11778
18.384832
110.76395
0
22.760125
0
63.886128
61.212278
13.989513
0
0
0
0
0
0
0
0
0
14.995882
15.593153
0
179.10743
59.458574
0
109.72959
76.868278
171.80192
224.19635
164.9309
145.20092
0
0
0
0
0
0
0
103.73493
55.929343
0
53.62044
44.206304
89.716543
139.10415
121.37711
196.23846
187.3891
172.44455
89.748322
104.00478
112.18945
231.29281
0
0
0
170.01165
67.062633
60.508108
59.334185
16.110982
0
16.477726
0
0
0
183.12503
163.14702
143.15991
175.79368
282.70868
0
0
213.08027
149.06978
97.342342
113.77634
148.21803
66.0311
49.783327
89.164075
116.74755
0
0
0
0
20.989209
0
0
14.275157
13.11069
15.532747
54.870372
70.092696
0
0
0
69.801446
57.869871
0
0
0
55.685431
83.33094
141.55395
125.76331
0
0
0
0
0
0
0
7.1019762
7.6938121
76.54142
36.792814
153.27423
208.27575
261.83157
105.50495
93.032172
40.665807
55.582436
28.355093
0
0
0
0
)


961
(
247.54772
247.54772
247.54772
247.54772
247.54772
247.54772
247.54772
247.54772
247.54772
247.54772
247.54772
247.54772
247.54772
247.54772
247.54772
247.54772
247.54772
247.54772
247.54772
247.54772
247.54772
247.54772
247.54772
247.54772
247.54772
247.54772
247.54772
86.410471
247.54772
247.54772
247.54772
247.54772
86.410471
167.30105
247.54772
247.54772
247.54772
247.54772
64.225984
247.54772
247.54772
247.54772
74.140094
247.54772
247.54772
247.54772
247.54772
247.54772
247.54772
247.54772
74.140094
247.54772
247.54772
247.54772
247.54772
247.54772
247.54772
247.54772
247.54772
247.54772
247.54772
247.54772
247.54772
247.54772
62.158648
247.54772
247.54772
247.54772
247.54772
247.54772
247.54772
247.54772
62.158648
247.54772
247.54772
247.54772
247.54772
247.54772
62.158648
247.54772
247.54772
247.54772
247.54772
247.54772
247.54772
247.54772
62.939558
62.939558
247.54772
52.338522
75.960105
75.960105
247.54772
247.54772
247.54772
86.410471
86.410471
86.410471
64.225984
247.54772
247.54772
247.54772
247.54772
247.54772
247.54772
247.54772
247.54772
247.54772
247.54772
247.54772
247.54772
247.54772
247.54772
247.54772
247.54772
247.54772
247.54772
247.54772
247.54772
247.54772
247.54772
247.54772
247.54772
247.54772
247.54772
247.54772
247.54772
247.54772
86.410471
247.54772
247.54772
247.54772
247.54772
247.54772
86.410471
247.54772
247.54772
247.54772
247.54772
247.54772
247.54772
247.54772
247.54772
247.54772
247.54772
247.54772
247.54772
247.54772
247.54772
247.54772
247.54772
247.54772
247.54772
247.54772
52.338522
52.338522
247.54772
247.54772
247.54772
247.54772
247.54772
247.54772
247.54772
247.54772
247.54772
247.54772
247.54772
247.54772
247.54772
230.32305
230.32305
75.960105
247.54772
247.54772
247.54772
247.54772
247.54772
247.54772
247.54772
247.54772
247.54772
247.54772
247.54772
247.54772
247.54772
247.54772
247.54772
247.54772
247.54772
247.54772
247.54772
247.54772
247.54772
247.54772
247.54772
247.54772
247.54772
247.54772
247.54772
247.54772
247.54772
247.54772
247.54772
247.54772
247.54772
247.54772
247.54772
247.54772
247.54772
247.54772
247.54772
247.54772
247.54772
247.54772
247.54772
247.54772
247.54772
247.54772
247.54772
247.54772
247.54772
247.54772
247.54772
247.54772
247.54772
247.54772
247.54772
247.54772
83.269254
83.269254
83.269254
83.269254
83.269254
83.269254
83.269254
83.269254
83.269254
83.269254
83.269254
83.269254
83.269254
83.269254
83.269254
83.269254
83.269254
83.269254
83.269254
83.269254
83.269254
83.269254
83.269254
83.269254
83.269254
83.269254
83.269254
83.269254
83.269254
83.269254
83.269254
83.269254
83.269254
83.269254
83.269254
83.269254
83.269254
83.269254
83.269254
83.269254
83.269254
83.269254
83.269254
83.269254
83.269254
83.269254
247.54772
83.269254
83.269254
247.54772
247.54772
83.269254
83.269254
83.269254
83.269254
83.269254
247.54772
247.54772
83.269254
83.269254
83.269254
83.269254
83.269254
83.269254
83.269254
83.269254
83.269254
83.269254
83.269254
83.269254
83.269254
83.269254
83.269254
247.54772
247.54772
83.269254
83.269254
83.269254
83.269254
83.269254
83.269254
83.269254
83.269254
83.269254
83.269254
83.269254
83.269254
247.54772
247.54772
247.54772
247.54772
247.54772
83.269254
247.54772
247.54772
83.269254
247.54772
247.54772
83.269254
247.54772
247.54772
83.269254
247.54772
247.54772
83.269254
247.54772
83.269254
247.54772
247.54772
247.54772
247.54772
247.54772
247.54772
247.54772
247.54772
83.269254
83.269254
83.269254
247.54772
247.54772
247.54772
247.54772
247.54772
247.54772
247.54772
247.54772
247.54772
247.54772
247.54772
247.54772
247.54772
247.54772
247.54772
83.269254
83.269254
83.269254
83.269254
247.54772
247.54772
247.54772
247.54772
83.269254
83.269254
83.269254
83.269254
83.269254
83.269254
247.54772
247.54772
247.54772
83.269254
83.269254
83.269254
83.269254
83.269254
247.54772
247.54772
247.54772
83.269254
83.269254
247.54772
247.54772
247.54772
83.269254
247.54772
247.54772
247.54772
83.269254
247.54772
247.54772
247.54772
247.54772
247.54772
247.54772
83.269254
83.269254
247.54772
247.54772
247.54772
83.269254
247.54772
247.54772
247.54772
247.54772
247.54772
247.54772
247.54772
247.54772
247.54772
247.54772
247.54772
247.54772
247.54772
247.54772
247.54772
247.54772
247.54772
247.54772
247.54772
247.54772
247.54772
247.54772
247.54772
247.54772
247.54772
247.54772
247.54772
247.54772
247.54772
247.54772
247.54772
83.269254
83.269254
83.269254
83.269254
83.269254
83.269254
83.269254
83.269254
83.269254
83.269254
83.269254
83.269254
83.269254
83.269254
83.269254
83.269254
83.269254
83.269254
83.269254
83.269254
83.269254
83.269254
83.269254
83.269254
83.269254
83.269254
83.269254
83.269254
83.269254
83.269254
83.269254
83.269254
83.269254
83.269254
83.269254
83.269254
83.269254
83.269254
83.269254
83.269254
83.269254
83.269254
83.269254
83.269254
83.269254
83.269254
83.269254
83.269254
83.269254
83.269254
83.269254
83.269254
83.269254
83.269254
83.269254
83.269254
83.269254
83.269254
83.269254
83.269254
83.269254
83.269254
83.269254
83.269254
83.269254
83.269254
83.269254
83.269254
83.269254
83.269254
83.269254
83.269254
83.269254
83.269254
83.269254
83.269254
83.269254
83.269254
83.269254
83.269254
83.269254
83.269254
83.269254
83.269254
83.269254
83.269254
83.269254
83.269254
83.269254
83.269254
83.269254
83.269254
83.269254
83.269254
83.269254
83.269254
83.269254
83.269254
83.269254
83.269254
83.269254
83.269254
83.269254
83.269254
83.269254
83.269254
83.269254
83.269254
83.269254
83.269254
83.269254
83.269254
83.269254
83.269254
83.269254
83.269254
83.269254
83.269254
83.269254
83.269254
83.269254
83.269254
83.269254
83.269254
83.269254
83.269254
83.269254
83.269254
83.269254
83.269254
83.269254
83.269254
83.269254
83.269254
83.269254
83.269254
83.269254
83.269254
83.269254
83.269254
83.269254
83.269254
83.269254
83.269254
83.269254
83.269254
83.269254
83.269254
83.269254
83.269254
83.269254
83.269254
83.269254
83.269254
83.269254
83.269254
83.269254
83.269254
83.269254
83.269254
83.269254
83.269254
83.269254
83.269254
83.269254
83.269254
83.269254
83.269254
83.269254
83.269254
83.269254
247.54772
247.54772
247.54772
247.54772
247.54772
247.54772
247.54772
247.54772
247.54772
247.54772
247.54772
247.54772
247.54772
247.54772
247.54772
247.54772
247.54772
247.54772
247.54772
247.54772
247.54772
247.54772
247.54772
83.269254
83.269254
83.269254
83.269254
83.269254
83.269254
83.269254
83.269254
83.269254
83.269254
83.269254
83.269254
83.269254
83.269254
83.269254
83.269254
83.269254
83.269254
83.269254
83.269254
83.269254
83.269254
247.54772
83.269254
83.269254
83.269254
83.269254
83.269254
83.269254
83.269254
83.269254
83.269254
83.269254
83.269254
83.269254
83.269254
83.269254
83.269254
247.54772
247.54772
83.269254
247.54772
83.269254
83.269254
247.54772
247.54772
247.54772
247.54772
247.54772
83.269254
247.54772
83.269254
247.54772
247.54772
83.269254
247.54772
247.54772
83.269254
83.269254
83.269254
83.269254
247.54772
247.54772
247.54772
83.269254
83.269254
83.269254
83.269254
83.269254
247.54772
247.54772
247.54772
83.269254
247.54772
247.54772
247.54772
83.269254
83.269254
247.54772
247.54772
247.54772
83.269254
247.54772
247.54772
247.54772
247.54772
247.54772
247.54772
247.54772
247.54772
83.269254
247.54772
247.54772
83.269254
247.54772
247.54772
83.269254
247.54772
83.269254
247.54772
247.54772
247.54772
247.54772
247.54772
247.54772
247.54772
247.54772
247.54772
247.54772
247.54772
247.54772
83.269254
247.54772
247.54772
247.54772
83.269254
247.54772
247.54772
247.54772
247.54772
247.54772
83.269254
83.269254
83.269254
247.54772
247.54772
247.54772
247.54772
247.54772
247.54772
83.269254
83.269254
83.269254
83.269254
83.269254
83.269254
83.269254
83.269254
83.269254
83.269254
83.269254
83.269254
83.269254
83.269254
83.269254
83.269254
83.269254
247.54772
247.54772
247.54772
247.54772
247.54772
247.54772
247.54772
247.54772
247.54772
247.54772
247.54772
247.54772
83.269254
247.54772
247.54772
83.269254
247.54772
247.54772
83.269254
247.54772
247.54772
83.269254
83.269254
83.269254
83.269254
83.269254
247.54772
247.54772
247.54772
247.54772
83.269254
247.54772
247.54772
83.269254
247.54772
247.54772
247.54772
247.54772
247.54772
247.54772
83.269254
247.54772
247.54772
247.54772
83.269254
247.54772
247.54772
247.54772
247.54772
91.748638
6.0781172
0
111.00093
44.250409
0
116.86515
0
0
0
32.878425
0
0
0
0
0
0
0
0
0
0
0
0
0
0
206.98681
74.167982
0
69.502761
13.226481
156.4544
205.99504
185.37734
128.56591
0
0
0
0
0
0
0
137.61936
70.181037
30.795505
90.824866
29.842367
21.289909
98.484355
54.008054
137.49451
170.75004
197.25054
121.71525
148.7441
120.2028
227.46215
11.553678
0
0
115.16489
28.409417
112.91989
96.337624
41.904132
3.3107787
69.254444
0
0
0
209.15006
184.1765
179.22738
162.78531
263.95457
8.9103281
0
146.21686
95.658495
143.87902
100.32029
165.19488
86.034522
94.560231
79.163369
70.9586
0
0
0
0
28.989916
0
0
40.340323
64.055544
10.821781
103.89839
95.783011
0
0
0
1.9561083
112.62643
47.823104
17.362737
0
16.33717
73.822717
157.50184
161.98289
0
0
0
0
0
0
0
25.39536
13.760102
38.10339
50.512978
156.231
143.47966
251.90138
151.70746
141.69135
93.260542
105.73965
0
0
0
0
0
)


961
(
218.93877
218.93877
218.93877
218.93877
218.93877
218.93877
218.93877
218.93877
218.93877
218.93877
218.93877
218.93877
218.93877
218.93877
117.05204
218.93877
218.93877
218.93877
218.93877
218.93877
218.93877
218.93877
218.93877
218.93877
218.93877
218.93877
218.93877
92.066027
218.93877
218.93877
218.93877
218.93877
92.066027
121.36842
218.93877
218.93877
218.93877
218.93877
45.260537
218.93877
218.93877
218.93877
218.93877
218.93877
218.93877
218.93877
218.93877
218.93877
218.93877
218.93877
218.93877
218.93877
218.93877
218.93877
218.93877
218.93877
218.93877
218.93877
218.93877
218.93877
218.93877
218.93877
218.93877
218.93877
45.687137
218.93877
218.93877
218.93877
218.93877
218.93877
218.93877
218.93877
45.687137
218.93877
218.93877
218.93877
218.93877
218.93877
45.687137
218.93877
218.93877
218.93877
218.93877
218.93877
218.93877
218.93877
218.93877
218.93877
218.93877
54.31955
218.93877
63.146587
218.93877
218.93877
218.93877
92.066027
218.93877
92.066027
45.260537
218.93877
45.260537
218.93877
218.93877
218.93877
218.93877
218.93877
218.93877
218.93877
218.93877
218.93877
218.93877
218.93877
218.93877
218.93877
218.93877
218.93877
218.93877
218.93877
218.93877
218.93877
218.93877
218.93877
218.93877
218.93877
218.93877
218.93877
218.93877
218.93877
218.93877
218.93877
218.93877
218.93877
117.05204
117.05204
92.066027
121.36842
218.93877
117.05204
218.93877
218.93877
218.93877
218.93877
218.93877
218.93877
218.93877
218.93877
218.93877
218.93877
218.93877
218.93877
218.93877
218.93877
218.93877
54.31955
54.31955
54.31955
218.93877
54.31955
54.31955
218.93877
218.93877
218.93877
218.93877
218.93877
218.93877
218.93877
218.93877
218.93877
218.93877
218.93877
218.93877
218.93877
218.93877
218.93877
218.93877
218.93877
218.93877
218.93877
218.93877
218.93877
218.93877
218.93877
218.93877
218.93877
218.93877
218.93877
218.93877
218.93877
218.93877
218.93877
218.93877
218.93877
218.93877
218.93877
218.93877
218.93877
218.93877
218.93877
218.93877
218.93877
218.93877
218.93877
218.93877
218.93877
218.93877
218.93877
218.93877
218.93877
218.93877
218.93877
218.93877
218.93877
218.93877
218.93877
218.93877
218.93877
218.93877
218.93877
218.93877
218.93877
218.93877
218.93877
218.93877
218.93877
218.93877
218.93877
218.93877
218.93877
136.63498
136.63498
136.63498
136.63498
136.63498
136.63498
136.63498
136.63498
136.63498
136.63498
136.63498
136.63498
136.63498
136.63498
136.63498
136.63498
136.63498
136.63498
136.63498
136.63498
136.63498
136.63498
136.63498
136.63498
136.63498
136.63498
136.63498
136.63498
136.63498
136.63498
136.63498
136.63498
136.63498
136.63498
136.63498
136.63498
136.63498
136.63498
136.63498
136.63498
136.63498
136.63498
136.63498
136.63498
136.63498
136.63498
218.93877
136.63498
136.63498
218.93877
218.93877
136.63498
136.63498
136.63498
136.63498
136.63498
218.93877
218.93877
136.63498
136.63498
136.63498
136.63498
136.63498
136.63498
136.63498
136.63498
136.63498
136.63498
136.63498
136.63498
136.63498
136.63498
136.63498
218.93877
218.93877
136.63498
136.63498
136.63498
136.63498
136.63498
136.63498
136.63498
136.63498
136.63498
136.63498
136.63498
136.63498
218.93877
218.93877
218.93877
218.93877
218.93877
136.63498
218.93877
218.93877
136.63498
218.93877
218.93877
136.63498
218.93877
218.93877
136.63498
218.93877
218.93877
136.63498
218.93877
136.63498
218.93877
218.93877
218.93877
218.93877
218.93877
218.93877
218.93877
218.93877
136.63498
136.63498
136.63498
218.93877
218.93877
218.93877
218.93877
218.93877
218.93877
218.93877
218.93877
218.93877
218.93877
218.93877
218.93877
218.93877
218.93877
218.93877
136.63498
136.63498
136.63498
136.63498
218.93877
218.93877
218.93877
218.93877
136.63498
136.63498
136.63498
136.63498
136.63498
136.63498
218.93877
218.93877
218.93877
136.63498
136.63498
136.63498
136.63498
136.63498
218.93877
218.93877
218.93877
136.63498
136.63498
218.93877
218.93877
218.93877
136.63498
218.93877
218.93877
218.93877
136.63498
218.93877
218.93877
218.93877
218.93877
218.93877
218.93877
136.63498
136.63498
218.93877
218.93877
218.93877
136.63498
218.93877
218.93877
218.93877
218.93877
218.93877
218.93877
218.93877
218.93877
218.93877
218.93877
218.93877
218.93877
218.93877
218.93877
218.93877
218.93877
218.93877
218.93877
218.93877
218.93877
218.93877
218.93877
218.93877
218.93877
218.93877
218.93877
218.93877
218.93877
218.93877
218.93877
218.93877
136.63498
136.63498
136.63498
136.63498
136.63498
136.63498
136.63498
136.63498
136.63498
136.63498
136.63498
136.63498
136.63498
136.63498
136.63498
136.63498
136.63498
136.63498
136.63498
136.63498
136.63498
136.63498
136.63498
136.63498
136.63498
136.63498
136.63498
136.63498
136.63498
136.63498
136.63498
136.63498
136.63498
136.63498
136.63498
136.63498
136.63498
136.63498
136.63498
136.63498
136.63498
136.63498
136.63498
136.63498
136.63498
136.63498
136.63498
136.63498
136.63498
136.63498
136.63498
136.63498
136.63498
136.63498
136.63498
136.63498
136.63498
136.63498
136.63498
136.63498
136.63498
136.63498
136.63498
136.63498
136.63498
136.63498
136.63498
136.63498
136.63498
136.63498
136.63498
136.63498
136.63498
136.63498
136.63498
136.63498
136.63498
136.63498
136.63498
136.63498
136.63498
136.63498