/*--------------------------------*- C++ -*----------------------------------*\
  =========                 |
  \\      /  F ield         | OpenFOAM: The Open Source CFD Toolbox
   \\    /   O peration     | Website:  https://openfoam.org
    \\  /    A nd           | Version:  8
     \\/     M anipulation  |
\*---------------------------------------------------------------------------*/
/*   Windows 32 and 64 bit porting by blueCAPE: http://www.bluecape.com.pt   *\
|  Based on Windows porting (2.0.x v4) by Symscape: http://www.symscape.com   |
\*---------------------------------------------------------------------------*/
FoamFile
{
    version     2.0;
    format      ascii;
    class       scalarListList;
    location    "constant/vegetation";
    object      sunViewCoeff;
}
// * * * * * * * * * * * * * * * * * * * * * * * * * * * * * * * * * * * * * //


5
(

675
(
0
501.05251
0
0
501.05251
501.05251
501.05251
253.73543
0
501.05251
368.39113
501.05251
501.05251
0
501.05251
501.05251
354.0909
501.05251
0
501.05251
499.03482
409.71908
373.91298
501.05251
0
501.05251
490.95593
0
491.00501
501.05251
143.11311
501.05251
129.62389
435.8283
0
501.05251
501.05251
90.088942
323.07511
0
0
0
0
0
0
0
0
0
0
0
0
0
0
0
0
0
0
0
0
0
0
0
0
0
0
0
0
0
0
0
0
0
0
0
0
0
0
0
0
0
0
0
0
0
0
0
0
0
0
0
0
501.05251
0
0
501.05251
501.05251
0
0
0
0
0
501.05251
501.05251
0
0
0
0
0
0
0
0
0
0
0
0
0
0
0
501.05251
501.05251
0
0
0
0
0
0
0
0
0
0
0
0
501.05251
501.05251
501.05251
501.05251
501.05251
0
501.05251
501.05251
0
501.05251
501.05251
0
501.05251
501.05251
0
501.05251
501.05251
0
501.05251
0
501.05251
501.05251
501.05251
501.05251
501.05251
501.05251
501.05251
501.05251
0
0
0
501.05251
501.05251
501.05251
501.05251
501.05251
501.05251
501.05251
501.05251
501.05251
501.05251
501.05251
501.05251
501.05251
501.05251
501.05251
0
0
0
0
501.05251
501.05251
501.05251
501.05251
0
0
0
0
0
0
501.05251
501.05251
501.05251
0
0
0
0
0
501.05251
501.05251
501.05251
0
0
501.05251
501.05251
501.05251
0
501.05251
501.05251
501.05251
0
501.05251
501.05251
501.05251
501.05251
501.05251
501.05251
0
0
501.05251
501.05251
501.05251
0
501.05251
501.05251
501.05251
501.05251
501.05251
501.05251
501.05251
501.05251
501.05251
501.05251
501.05251
501.05251
501.05251
501.05251
501.05251
501.05251
501.05251
501.05251
501.05251
501.05251
501.05251
501.05251
501.05251
501.05251
501.05251
501.05251
501.05251
501.05251
501.05251
501.05251
501.05251
0
0
0
0
0
0
0
0
0
0
0
0
0
0
0
0
0
0
0
0
0
0
0
0
0
0
0
0
0
0
0
0
0
0
0
0
0
0
0
0
0
0
0
0
0
0
0
0
0
0
0
0
0
0
0
0
0
0
0
0
0
0
0
0
0
0
0
0
0
0
0
0
0
0
0
0
0
0
0
0
0
0
0
0
0
0
0
0
0
0
0
0
0
0
0
0
0
0
0
0
0
0
0
0
0
0
0
0
0
0
0
0
0
0
0
0
0
0
0
0
0
0
0
0
0
0
0
0
0
0
0
0
0
0
0
0
0
0
0
0
0
0
0
0
0
0
0
0
0
0
0
0
0
0
0
0
0
0
0
0
0
0
0
0
0
0
0
0
0
0
0
501.05251
501.05251
501.05251
501.05251
501.05251
501.05251
501.05251
501.05251
501.05251
501.05251
501.05251
501.05251
501.05251
501.05251
501.05251
501.05251
501.05251
501.05251
501.05251
501.05251
501.05251
501.05251
501.05251
0
0
0
0
0
0
0
0
0
0
0
0
0
0
0
0
0
0
0
0
0
0
501.05251
0
0
0
0
0
0
0
0
0
0
0
0
0
0
0
501.05251
501.05251
0
501.05251
0
0
501.05251
501.05251
501.05251
501.05251
501.05251
0
501.05251
0
501.05251
501.05251
0
501.05251
501.05251
0
0
0
0
501.05251
501.05251
501.05251
0
0
0
0
0
501.05251
501.05251
501.05251
0
501.05251
501.05251
501.05251
0
0
501.05251
501.05251
501.05251
0
501.05251
501.05251
501.05251
501.05251
501.05251
501.05251
501.05251
501.05251
0
501.05251
501.05251
0
501.05251
501.05251
0
501.05251
0
501.05251
501.05251
501.05251
501.05251
501.05251
501.05251
501.05251
501.05251
501.05251
501.05251
501.05251
501.05251
0
501.05251
501.05251
501.05251
0
501.05251
501.05251
501.05251
501.05251
501.05251
0
0
0
501.05251
501.05251
501.05251
501.05251
501.05251
501.05251
0
0
0
0
0
0
0
0
0
0
0
0
0
0
0
0
0
501.05251
501.05251
501.05251
501.05251
501.05251
501.05251
501.05251
501.05251
501.05251
501.05251
501.05251
501.05251
0
501.05251
501.05251
0
501.05251
501.05251
0
501.05251
501.05251
0
0
0
0
0
501.05251
501.05251
501.05251
501.05251
0
501.05251
501.05251
0
501.05251
501.05251
501.05251
501.05251
501.05251
501.05251
0
501.05251
501.05251
501.05251
0
501.05251
501.05251
501.05251
501.05251
1.6301002
397.73755
66.834183
10.914774
48.67937
308.40439
52.126813
132.33119
86.570661
0
0
9.5708985
141.01538
527.06242
65.019657
85.996471
229.93427
0
0
0
0
52.561756
313.61057
259.06168
186.79298
0
0
26.786788
0
)


675
(
284.54856
284.54856
284.54856
284.54856
284.54856
284.54856
284.54856
190.08859
284.54856
284.54856
284.54856
284.54856
284.54856
284.54856
284.54856
284.54856
172.69263
284.54856
284.54856
284.54856
280.33731
192.95996
195.14247
284.54856
284.54856
284.54856
283.38896
284.54856
284.54856
284.54856
260.25692
284.54856
99.576545
284.54856
284.54856
284.54856
284.54856
248.43828
150.69851
284.54856
284.54856
284.54856
284.54856
284.54856
284.54856
23.719504
23.719504
23.719504
23.719504
23.719504
23.719504
23.719504
23.719504
23.719504
23.719504
23.719504
23.719504
23.719504
23.719504
23.719504
23.719504
23.719504
23.719504
23.719504
23.719504
23.719504
23.719504
23.719504
23.719504
23.719504
23.719504
23.719504
23.719504
23.719504
23.719504
23.719504
23.719504
23.719504
23.719504
23.719504
23.719504
23.719504
23.719504
23.719504
23.719504
23.719504
23.719504
23.719504
23.719504
23.719504
23.719504
284.54856
23.719504
23.719504
284.54856
284.54856
23.719504
23.719504
23.719504
23.719504
23.719504
284.54856
284.54856
23.719504
23.719504
23.719504
23.719504
23.719504
23.719504
23.719504
23.719504
23.719504
23.719504
23.719504
23.719504
23.719504
23.719504
23.719504
284.54856
284.54856
23.719504
23.719504
23.719504
23.719504
23.719504
23.719504
23.719504
23.719504
23.719504
23.719504
23.719504
23.719504
284.54856
284.54856
284.54856
284.54856
284.54856
23.719504
284.54856
284.54856
23.719504
284.54856
284.54856
23.719504
284.54856
284.54856
23.719504
284.54856
284.54856
23.719504
284.54856
23.719504
284.54856
284.54856
284.54856
284.54856
284.54856
284.54856
284.54856
284.54856
23.719504
23.719504
23.719504
284.54856
284.54856
284.54856
284.54856
284.54856
284.54856
284.54856
284.54856
284.54856
284.54856
284.54856
284.54856
284.54856
284.54856
284.54856
23.719504
23.719504
23.719504
23.719504
284.54856
284.54856
284.54856
284.54856
23.719504
23.719504
23.719504
23.719504
23.719504
23.719504
284.54856
284.54856
284.54856
23.719504
23.719504
23.719504
23.719504
23.719504
284.54856
284.54856
284.54856
23.719504
23.719504
284.54856
284.54856
284.54856
23.719504
284.54856
284.54856
284.54856
23.719504
284.54856
284.54856
284.54856
284.54856
284.54856
284.54856
23.719504
23.719504
284.54856
284.54856
284.54856
23.719504
284.54856
284.54856
284.54856
284.54856
284.54856
284.54856
284.54856
284.54856
284.54856
284.54856
284.54856
284.54856
284.54856
284.54856
284.54856
284.54856
284.54856
284.54856
284.54856
284.54856
284.54856
284.54856
284.54856
284.54856
284.54856
284.54856
284.54856
284.54856
284.54856
284.54856
284.54856
23.719504
23.719504
23.719504
23.719504
23.719504
23.719504
23.719504
23.719504
23.719504
23.719504
23.719504
23.719504
23.719504
23.719504
23.719504
23.719504
23.719504
23.719504
23.719504
23.719504
23.719504
23.719504
23.719504
23.719504
23.719504
23.719504
23.719504
23.719504
23.719504
23.719504
23.719504
23.719504
23.719504
23.719504
23.719504
23.719504
23.719504
23.719504
23.719504
23.719504
23.719504
23.719504
23.719504
23.719504
23.719504
23.719504
23.719504
23.719504
23.719504
23.719504
23.719504
23.719504
23.719504
23.719504
23.719504
23.719504
23.719504
23.719504
23.719504
23.719504
23.719504
23.719504
23.719504
23.719504
23.719504
23.719504
23.719504
23.719504
23.719504
23.719504
23.719504
23.719504
23.719504
23.719504
23.719504
23.719504
23.719504
23.719504
23.719504
23.719504
23.719504
23.719504
23.719504
23.719504
23.719504
23.719504
23.719504
23.719504
23.719504
23.719504
23.719504
23.719504
23.719504
23.719504
23.719504
23.719504
23.719504
23.719504
23.719504
23.719504
23.719504
23.719504
23.719504
23.719504
23.719504
23.719504
23.719504
23.719504
23.719504
23.719504
23.719504
23.719504
23.719504
23.719504
23.719504
23.719504
23.719504
23.719504
23.719504
23.719504
23.719504
23.719504
23.719504
23.719504
23.719504
23.719504
23.719504
23.719504
23.719504
23.719504
23.719504
23.719504
23.719504
23.719504
23.719504
23.719504
23.719504
23.719504
23.719504
23.719504
23.719504
23.719504
23.719504
23.719504
23.719504
23.719504
23.719504
23.719504
23.719504
23.719504
23.719504
23.719504
23.719504
23.719504
23.719504
23.719504
23.719504
23.719504
23.719504
23.719504
23.719504
23.719504
23.719504
23.719504
23.719504
23.719504
23.719504
23.719504
23.719504
23.719504
23.719504
284.54856
284.54856
284.54856
284.54856
284.54856
284.54856
284.54856
284.54856
284.54856
284.54856
284.54856
284.54856
284.54856
284.54856
284.54856
284.54856
284.54856
284.54856
284.54856
284.54856
284.54856
284.54856
284.54856
23.719504
23.719504
23.719504
23.719504
23.719504
23.719504
23.719504
23.719504
23.719504
23.719504
23.719504
23.719504
23.719504
23.719504
23.719504
23.719504
23.719504
23.719504
23.719504
23.719504
23.719504
23.719504
284.54856
23.719504
23.719504
23.719504
23.719504
23.719504
23.719504
23.719504
23.719504
23.719504
23.719504
23.719504
23.719504
23.719504
23.719504
23.719504
284.54856
284.54856
23.719504
284.54856
23.719504
23.719504
284.54856
284.54856
284.54856
284.54856
284.54856
23.719504
284.54856
23.719504
284.54856
284.54856
23.719504
284.54856
284.54856
23.719504
23.719504
23.719504
23.719504
284.54856
284.54856
284.54856
23.719504
23.719504
23.719504
23.719504
23.719504
284.54856
284.54856
284.54856
23.719504
284.54856
284.54856
284.54856
23.719504
23.719504
284.54856
284.54856
284.54856
23.719504
284.54856
284.54856
284.54856
284.54856
284.54856
284.54856
284.54856
284.54856
23.719504
284.54856
284.54856
23.719504
284.54856
284.54856
23.719504
284.54856
23.719504
284.54856
284.54856
284.54856
284.54856
284.54856
284.54856
284.54856
284.54856
284.54856
284.54856
284.54856
284.54856
23.719504
284.54856
284.54856
284.54856
23.719504
284.54856
284.54856
284.54856
284.54856
284.54856
23.719504
23.719504
23.719504
284.54856
284.54856
284.54856
284.54856
284.54856
284.54856
23.719504
23.719504
23.719504
23.719504
23.719504
23.719504
23.719504
23.719504
23.719504
23.719504
23.719504
23.719504
23.719504
23.719504
23.719504
23.719504
23.719504
284.54856
284.54856
284.54856
284.54856
284.54856
284.54856
284.54856
284.54856
284.54856
284.54856
284.54856
284.54856
23.719504
284.54856
284.54856
23.719504
284.54856
284.54856
23.719504
284.54856
284.54856
23.719504
23.719504
23.719504
23.719504
23.719504
284.54856
284.54856
284.54856
284.54856
23.719504
284.54856
284.54856
23.719504
284.54856
284.54856
284.54856
284.54856
284.54856
284.54856
23.719504
284.54856
284.54856
284.54856
23.719504
284.54856
284.54856
284.54856
284.54856
55.775971
173.6268
0
75.11546
19.448458
169.36368
2.2329929
66.08863
29.826368
0
0
2.0128443
40.556882
330.59411
16.955207
0
162.73091
0
0
0
0
93.006479
116.21223
178.43359
167.09939
20.712704
9.4527545
93.239483
0
)


675
(
247.54772
247.54772
247.54772
247.54772
247.54772
247.54772
247.54772
189.13686
247.54772
247.54772
247.54772
247.54772
247.54772
247.54772
247.54772
247.54772
86.410471
247.54772
240.36479
247.54772
245.46696
156.06805
247.54772
247.54772
247.54772
247.54772
247.54772
247.54772
247.54772
247.54772
168.7593
247.54772
173.45993
247.54772
247.54772
247.54772
247.54772
144.64305
119.13553
247.54772
247.54772
247.54772
247.54772
247.54772
247.54772
83.269254
83.269254
83.269254
83.269254
83.269254
83.269254
83.269254
83.269254
83.269254
83.269254
83.269254
83.269254
83.269254
83.269254
83.269254
83.269254
83.269254
83.269254
83.269254
83.269254
83.269254
83.269254
83.269254
83.269254
83.269254
83.269254
83.269254
83.269254
83.269254
83.269254
83.269254
83.269254
83.269254
83.269254
83.269254
83.269254
83.269254
83.269254
83.269254
83.269254
83.269254
83.269254
83.269254
83.269254
83.269254
83.269254
247.54772
83.269254
83.269254
247.54772
247.54772
83.269254
83.269254
83.269254
83.269254
83.269254
247.54772
247.54772
83.269254
83.269254
83.269254
83.269254
83.269254
83.269254
83.269254
83.269254
83.269254
83.269254
83.269254
83.269254
83.269254
83.269254
83.269254
247.54772
247.54772
83.269254
83.269254
83.269254
83.269254
83.269254
83.269254
83.269254
83.269254
83.269254
83.269254
83.269254
83.269254
247.54772
247.54772
247.54772
247.54772
247.54772
83.269254
247.54772
247.54772
83.269254
247.54772
247.54772
83.269254
247.54772
247.54772
83.269254
247.54772
247.54772
83.269254
247.54772
83.269254
247.54772
247.54772
247.54772
247.54772
247.54772
247.54772
247.54772
247.54772
83.269254
83.269254
83.269254
247.54772
247.54772
247.54772
247.54772
247.54772
247.54772
247.54772
247.54772
247.54772
247.54772
247.54772
247.54772
247.54772
247.54772
247.54772
83.269254
83.269254
83.269254
83.269254
247.54772
247.54772
247.54772
247.54772
83.269254
83.269254
83.269254
83.269254
83.269254
83.269254
247.54772
247.54772
247.54772
83.269254
83.269254
83.269254
83.269254
83.269254
247.54772
247.54772
247.54772
83.269254
83.269254
247.54772
247.54772
247.54772
83.269254
247.54772
247.54772
247.54772
83.269254
247.54772
247.54772
247.54772
247.54772
247.54772
247.54772
83.269254
83.269254
247.54772
247.54772
247.54772
83.269254
247.54772
247.54772
247.54772
247.54772
247.54772
247.54772
247.54772
247.54772
247.54772
247.54772
247.54772
247.54772
247.54772
247.54772
247.54772
247.54772
247.54772
247.54772
247.54772
247.54772
247.54772
247.54772
247.54772
247.54772
247.54772
247.54772
247.54772
247.54772
247.54772
247.54772
247.54772
83.269254
83.269254
83.269254
83.269254
83.269254
83.269254
83.269254
83.269254
83.269254
83.269254
83.269254
83.269254
83.269254
83.269254
83.269254
83.269254
83.269254
83.269254
83.269254
83.269254
83.269254
83.269254
83.269254
83.269254
83.269254
83.269254
83.269254
83.269254
83.269254
83.269254
83.269254
83.269254
83.269254
83.269254
83.269254
83.269254
83.269254
83.269254
83.269254
83.269254
83.269254
83.269254
83.269254
83.269254
83.269254
83.269254
83.269254
83.269254
83.269254
83.269254
83.269254
83.269254
83.269254
83.269254
83.269254
83.269254
83.269254
83.269254
83.269254
83.269254
83.269254
83.269254
83.269254
83.269254
83.269254
83.269254
83.269254
83.269254
83.269254
83.269254
83.269254
83.269254
83.269254
83.269254
83.269254
83.269254
83.269254
83.269254
83.269254
83.269254
83.269254
83.269254
83.269254
83.269254
83.269254
83.269254
83.269254
83.269254
83.269254
83.269254
83.269254
83.269254
83.269254
83.269254
83.269254
83.269254
83.269254
83.269254
83.269254
83.269254
83.269254
83.269254
83.269254
83.269254
83.269254
83.269254
83.269254
83.269254
83.269254
83.269254
83.269254
83.269254
83.269254
83.269254
83.269254
83.269254
83.269254
83.269254
83.269254
83.269254
83.269254
83.269254
83.269254
83.269254
83.269254
83.269254
83.269254
83.269254
83.269254
83.269254
83.269254
83.269254
83.269254
83.269254
83.269254
83.269254
83.269254
83.269254
83.269254
83.269254
83.269254
83.269254
83.269254
83.269254
83.269254
83.269254
83.269254
83.269254
83.269254
83.269254
83.269254
83.269254
83.269254
83.269254
83.269254
83.269254
83.269254
83.269254
83.269254
83.269254
83.269254
83.269254
83.269254
83.269254
83.269254
83.269254
83.269254
83.269254
83.269254
83.269254
83.269254
247.54772
247.54772
247.54772
247.54772
247.54772
247.54772
247.54772
247.54772
247.54772
247.54772
247.54772
247.54772
247.54772
247.54772
247.54772
247.54772
247.54772
247.54772
247.54772
247.54772
247.54772
247.54772
247.54772
83.269254
83.269254
83.269254
83.269254
83.269254
83.269254
83.269254
83.269254
83.269254
83.269254
83.269254
83.269254
83.269254
83.269254
83.269254
83.269254
83.269254
83.269254
83.269254
83.269254
83.269254
83.269254
247.54772
83.269254
83.269254
83.269254
83.269254
83.269254
83.269254
83.269254
83.269254
83.269254
83.269254
83.269254
83.269254
83.269254
83.269254
83.269254
247.54772
247.54772
83.269254
247.54772
83.269254
83.269254
247.54772
247.54772
247.54772
247.54772
247.54772
83.269254
247.54772
83.269254
247.54772
247.54772
83.269254
247.54772
247.54772
83.269254
83.269254
83.269254
83.269254
247.54772
247.54772
247.54772
83.269254
83.269254
83.269254
83.269254
83.269254
247.54772
247.54772
247.54772
83.269254
247.54772
247.54772
247.54772
83.269254
83.269254
247.54772
247.54772
247.54772
83.269254
247.54772
247.54772
247.54772
247.54772
247.54772
247.54772
247.54772
247.54772
83.269254
247.54772
247.54772
83.269254
247.54772
247.54772
83.269254
247.54772
83.269254
247.54772
247.54772
247.54772
247.54772
247.54772
247.54772
247.54772
247.54772
247.54772
247.54772
247.54772
247.54772
83.269254
247.54772
247.54772
247.54772
83.269254
247.54772
247.54772
247.54772
247.54772
247.54772
83.269254
83.269254
83.269254
247.54772
247.54772
247.54772
247.54772
247.54772
247.54772
83.269254
83.269254
83.269254
83.269254
83.269254
83.269254
83.269254
83.269254
83.269254
83.269254
83.269254
83.269254
83.269254
83.269254
83.269254
83.269254
83.269254
247.54772
247.54772
247.54772
247.54772
247.54772
247.54772
247.54772
247.54772
247.54772
247.54772
247.54772
247.54772
83.269254
247.54772
247.54772
83.269254
247.54772
247.54772
83.269254
247.54772
247.54772
83.269254
83.269254
83.269254
83.269254
83.269254
247.54772
247.54772
247.54772
247.54772
83.269254
247.54772
247.54772
83.269254
247.54772
247.54772
247.54772
247.54772
247.54772
247.54772
83.269254
247.54772
247.54772
247.54772
83.269254
247.54772
247.54772
247.54772
247.54772
103.85498
100.38899
0
123.06086
0
144.98598
0
41.569922
0
0
0
0
3.4157492
302.38876
2.998833
0
165.03967
0
0
12.598457
0
138.10755
33.391799
178.47785
199.58845
12.783343
6.4081715
139.92253
22.147876
)


675
(
218.93877
218.93877
218.93877
218.93877
218.93877
218.93877
218.93877
218.93877
175.5174
218.93877
218.93877
218.93877
218.93877
218.93877
218.93877
218.93877
128.21044
218.93877
201.33922
218.93877
218.93877
88.854607
218.93877
218.93877
218.93877
218.93877
218.93877
218.93877
218.93877
218.93877
145.30863
218.93877
218.93877
218.93877
218.93877
218.93877
218.93877
54.31955
179.92039
218.93877
218.93877
218.93877
218.93877
218.93877
218.93877
136.63498
136.63498
136.63498
136.63498
136.63498
136.63498
136.63498
136.63498
136.63498
136.63498
136.63498
136.63498
136.63498
136.63498
136.63498
136.63498
136.63498
136.63498
136.63498
136.63498
136.63498
136.63498
136.63498
136.63498
136.63498
136.63498
136.63498
136.63498
136.63498
136.63498
136.63498
136.63498
136.63498
136.63498
136.63498
136.63498
136.63498
136.63498
136.63498
136.63498
136.63498
136.63498
136.63498
136.63498
136.63498
136.63498
218.93877
136.63498
136.63498
218.93877
218.93877
136.63498
136.63498
136.63498
136.63498
136.63498
218.93877
218.93877
136.63498
136.63498
136.63498
136.63498
136.63498
136.63498
136.63498
136.63498
136.63498
136.63498
136.63498
136.63498
136.63498
136.63498
136.63498
218.93877
218.93877
136.63498
136.63498
136.63498
136.63498
136.63498
136.63498
136.63498
136.63498
136.63498
136.63498
136.63498
136.63498
218.93877
218.93877
218.93877
218.93877
218.93877
136.63498
218.93877
218.93877
136.63498
218.93877
218.93877
136.63498
218.93877
218.93877
136.63498
218.93877
218.93877
136.63498
218.93877
136.63498
218.93877
218.93877
218.93877
218.93877
218.93877
218.93877
218.93877
218.93877
136.63498
136.63498
136.63498
218.93877
218.93877
218.93877
218.93877
218.93877
218.93877
218.93877
218.93877
218.93877
218.93877
218.93877
218.93877
218.93877
218.93877
218.93877
136.63498
136.63498
136.63498
136.63498
218.93877
218.93877
218.93877
218.93877
136.63498
136.63498
136.63498
136.63498
136.63498
136.63498
218.93877
218.93877
218.93877
136.63498
136.63498
136.63498
136.63498
136.63498
218.93877
218.93877
218.93877
136.63498
136.63498
218.93877
218.93877
218.93877
136.63498
218.93877
218.93877
218.93877
136.63498
218.93877
218.93877
218.93877
218.93877
218.93877
218.93877
136.63498
136.63498
218.93877
218.93877
218.93877
136.63498
218.93877
218.93877
218.93877
218.93877
218.93877
218.93877
218.93877
218.93877
218.93877
218.93877
218.93877
218.93877
218.93877
218.93877
218.93877
218.93877
218.93877
218.93877
218.93877
218.93877
218.93877
218.93877
218.93877
218.93877
218.93877
218.93877
218.93877
218.93877
218.93877
218.93877
218.93877
136.63498
136.63498
136.63498
136.63498
136.63498
136.63498
136.63498
136.63498
136.63498
136.63498
136.63498
136.63498
136.63498
136.63498
136.63498
136.63498
136.63498
136.63498
136.63498
136.63498
136.63498
136.63498
136.63498
136.63498
136.63498
136.63498
136.63498
136.63498
136.63498
136.63498
136.63498
136.63498
136.63498
136.63498
136.63498
136.63498
136.63498
136.63498
136.63498
136.63498
136.63498
136.63498
136.63498
136.63498
136.63498
136.63498
136.63498
136.63498
136.63498
136.63498
136.63498
136.63498
136.63498
136.63498
136.63498
136.63498
136.63498
136.63498
136.63498
136.63498
136.63498
136.63498
136.63498
136.63498
136.63498
136.63498
136.63498
136.63498
136.63498
136.63498
136.63498
136.63498
136.63498
136.63498
136.63498
136.63498
136.63498
136.63498
136.63498
136.63498
136.63498
136.63498
136.63498
136.63498
136.63498
136.63498
136.63498
136.63498
136.63498
136.63498
136.63498
136.63498
136.63498
136.63498
136.63498
136.63498
136.63498
136.63498
136.63498
136.63498
136.63498
136.63498
136.63498
136.63498
136.63498
136.63498
136.63498
136.63498
136.63498
136.63498
136.63498
136.63498
136.63498
136.63498
136.63498
136.63498
136.63498
136.63498
136.63498
136.63498
136.63498
136.63498
136.63498
136.63498
136.63498
136.63498
136.63498
136.63498
136.63498
136.63498
136.63498
136.63498
136.63498
136.63498
136.63498
136.63498
136.63498
136.63498
136.63498
136.63498
136.63498
136.63498
136.63498
136.63498
136.63498
136.63498
136.63498
136.63498
136.63498
136.63498
136.63498
136.63498
136.63498
136.63498
136.63498
136.63498
136.63498
136.63498
136.63498
136.63498
136.63498
136.63498
136.63498
136.63498
136.63498
136.63498
136.63498
136.63498
136.63498
136.63498
136.63498
218.93877
218.93877
218.93877
218.93877
218.93877
218.93877
218.93877
218.93877
218.93877
218.93877
218.93877
218.93877
218.93877
218.93877
218.93877
218.93877
218.93877
218.93877
218.93877
218.93877
218.93877
218.93877
218.93877
136.63498
136.63498
136.63498
136.63498
136.63498
136.63498
136.63498
136.63498
136.63498
136.63498
136.63498
136.63498
136.63498
136.63498
136.63498
136.63498
136.63498
136.63498
136.63498
136.63498
136.63498
136.63498
218.93877
136.63498
136.63498
136.63498
136.63498
136.63498
136.63498
136.63498
136.63498
136.63498
136.63498
136.63498
136.63498
136.63498
136.63498
136.63498
218.93877
218.93877
136.63498
218.93877
136.63498
136.63498
218.93877
218.93877
218.93877
218.93877
218.93877
136.63498
218.93877
136.63498
218.93877
218.93877
136.63498
218.93877
218.93877
136.63498
136.63498
136.63498
136.63498
218.93877
218.93877
218.93877
136.63498
136.63498
136.63498
136.63498
136.63498
218.93877
218.93877
218.93877
136.63498
218.93877
218.93877
218.93877
136.63498
136.63498
218.93877
218.93877
218.93877
136.63498
218.93877
218.93877
218.93877
218.93877
218.93877
218.93877
218.93877
218.93877
136.63498
218.93877
218.93877
136.63498
218.93877
218.93877
136.63498
218.93877
136.63498
218.93877
218.93877
218.93877
218.93877
218.93877
218.93877
218.93877
218.93877
218.93877
218.93877
218.93877
218.93877
136.63498
218.93877
218.93877
218.93877
136.63498
218.93877
218.93877
218.93877
218.93877
218.93877
136.63498
136.63498
136.63498
218.93877
218.93877
218.93877
218.93877
218.93877
218.93877
136.63498
136.63498
136.63498
136.63498
136.63498
136.63498
136.63498
136.63498
136.63498
136.63498
136.63498
136.63498
136.63498
136.63498
136.63498
136.63498
136.63498
218.93877
218.93877
218.93877
218.93877
218.93877
218.93877
218.93877
218.93877
218.93877
218.93877
218.93877
218.93877
136.63498
218.93877
218.93877
136.63498
218.93877
218.93877
136.63498
218.93877
218.93877
136.63498
136.63498
136.63498
136.63498
136.63498
218.93877
218.93877
218.93877
218.93877
136.63498
218.93877
218.93877
136.63498
218.93877
218.93877
218.93877
218.93877
218.93877
218.93877
136.63498
218.93877
218.93877
218.93877
136.63498
218.93877
218.93877
218.93877
218.93877
150.69028
30.726233
0
163.85457
0
126.23636
0
14.712389
0
0
0
0
10.084571
279.43732
0.84993984
0
163.29686
0
0
10.074053
25.84558
181.9175
4.869171
175.73948
231.28822
73.685927
11.178139
177.11353
8.8814908
)


675
(
180.4505
180.4505
180.4505
180.4505
180.4505
180.4505
180.4505
180.4505
142.8787
180.4505
180.4505
180.4505
180.4505
123.53756
180.4505
180.4505
157.96402
180.4505
152.14142
180.4505
180.4505
147.01418
180.4505
180.4505
180.4505
180.4505
180.4505
33.328754
180.4505
180.4505
70.93398
180.4505
180.4505
180.4505
86.107379
180.4505
180.4505
69.410729
180.4505
180.4505
180.4505
98.464953
82.334613
180.4505
180.4505
178.75054
178.75054
178.75054
178.75054
178.75054
178.75054
178.75054
178.75054
178.75054
178.75054
178.75054
178.75054
178.75054
178.75054
178.75054
178.75054
178.75054
178.75054
178.75054
178.75054
178.75054
178.75054
178.75054
178.75054
178.75054
178.75054
178.75054
178.75054
178.75054
178.75054
178.75054
178.75054
178.75054
178.75054
178.75054
178.75054
178.75054
178.75054
178.75054
178.75054
178.75054
178.75054
178.75054
178.75054
178.75054
178.75054
180.4505
178.75054
178.75054
180.4505
180.4505
178.75054
178.75054
178.75054
178.75054
178.75054
180.4505
180.4505
178.75054
178.75054
178.75054
178.75054
178.75054
178.75054
178.75054
178.75054
178.75054
178.75054
178.75054
178.75054
178.75054
178.75054
178.75054
180.4505
180.4505
178.75054
178.75054
178.75054
178.75054
178.75054
178.75054
178.75054
178.75054
178.75054
178.75054
178.75054
178.75054
180.4505
180.4505
180.4505
180.4505
180.4505
178.75054
180.4505
180.4505
178.75054
180.4505
180.4505
178.75054
180.4505
180.4505
178.75054
180.4505
180.4505
178.75054
180.4505
178.75054
180.4505
180.4505
180.4505
180.4505
180.4505
180.4505
180.4505
180.4505
178.75054
178.75054
178.75054
180.4505
180.4505
180.4505
180.4505
180.4505
180.4505
180.4505
180.4505
180.4505
180.4505
180.4505
180.4505
180.4505
180.4505
180.4505
178.75054
178.75054
178.75054
178.75054
180.4505
180.4505
180.4505
180.4505
178.75054
178.75054
178.75054
178.75054
178.75054
178.75054
180.4505
180.4505
180.4505
178.75054
178.75054
178.75054
178.75054
178.75054
180.4505
180.4505
180.4505
178.75054
178.75054
180.4505
180.4505
180.4505
178.75054
180.4505
180.4505
180.4505
178.75054
180.4505
180.4505
180.4505
180.4505
180.4505
180.4505
178.75054
178.75054
180.4505
180.4505
180.4505
178.75054
180.4505
180.4505
180.4505
180.4505
180.4505
180.4505
180.4505
180.4505
180.4505
180.4505
180.4505
180.4505
180.4505
180.4505
180.4505
180.4505
180.4505
180.4505
180.4505
180.4505
180.4505
180.4505
180.4505
180.4505
180.4505
180.4505
180.4505
180.4505
180.4505
180.4505
180.4505
178.75054
178.75054
178.75054
178.75054
178.75054
178.75054
178.75054
178.75054
178.75054
178.75054
178.75054
178.75054
178.75054
178.75054
178.75054
178.75054
178.75054
178.75054
178.75054
178.75054
53.389932
178.75054
178.75054
178.75054
178.75054
178.75054
178.75054
178.75054
178.75054
178.75054
178.75054
178.75054
178.75054
178.75054
178.75054
178.75054
178.75054
178.75054
178.75054
178.75054
178.75054
178.75054
178.75054
178.75054
178.75054
178.75054
178.75054
178.75054
178.75054
178.75054
178.75054
178.75054
178.75054
178.75054
178.75054
178.75054
178.75054
178.75054
178.75054
178.75054
178.75054
178.75054
178.75054
178.75054
178.75054
178.75054
178.75054
178.75054
178.75054
178.75054
178.75054
178.75054
178.75054
178.75054
178.75054
178.75054
178.75054
178.75054
178.75054
178.75054
178.75054
178.75054
178.75054
178.75054
178.75054
178.75054
178.75054
178.75054
178.75054
178.75054
178.75054
178.75054
178.75054
178.75054
178.75054
178.75054
178.75054
178.75054
178.75054
178.75054
178.75054
178.75054
178.75054
178.75054
178.75054
178.75054
178.75054
178.75054
178.75054
178.75054
178.75054
178.75054
178.75054
178.75054
178.75054
178.75054
178.75054
178.75054
178.75054
178.75054
178.75054
178.75054
178.75054
178.75054
178.75054
178.75054
178.75054
178.75054
178.75054
178.75054
178.75054
178.75054
178.75054
178.75054
178.75054
178.75054
178.75054
178.75054
178.75054
178.75054
178.75054
178.75054
178.75054
178.75054
178.75054
178.75054
178.75054
178.75054
178.75054
178.75054
178.75054
178.75054
178.75054
178.75054
178.75054
178.75054
178.75054
178.75054
178.75054
178.75054
178.75054
178.75054
178.75054
178.75054
178.75054
178.75054
178.75054
178.75054
178.75054
178.75054
178.75054
180.4505
180.4505
180.4505
180.4505
180.4505
180.4505
180.4505
180.4505
180.4505
180.4505
180.4505
180.4505
180.4505
180.4505
180.4505
180.4505
180.4505
180.4505
180.4505
180.4505
180.4505
180.4505
180.4505
178.75054
178.75054
178.75054
178.75054
178.75054
178.75054
178.75054
178.75054
178.75054
178.75054
178.75054
178.75054
178.75054
178.75054
178.75054
178.75054
178.75054
178.75054
178.75054
178.75054
178.75054
178.75054
180.4505
178.75054
178.75054
178.75054
178.75054
178.75054
178.75054
178.75054
178.75054
178.75054
178.75054
178.75054
178.75054
178.75054
178.75054
178.75054
180.4505
180.4505
178.75054
180.4505
178.75054
178.75054
180.4505
180.4505
180.4505
180.4505
180.4505
178.75054
180.4505
178.75054
180.4505
180.4505
178.75054
180.4505
180.4505
178.75054
178.75054
178.75054
178.75054
180.4505
180.4505
180.4505
178.75054
178.75054
178.75054
178.75054
178.75054
180.4505
180.4505
180.4505
178.75054
180.4505
180.4505
180.4505
178.75054
178.75054
180.4505
180.4505
180.4505
178.75054
180.4505
180.4505
180.4505
180.4505
180.4505
180.4505
180.4505
180.4505
178.75054
180.4505
180.4505
178.75054
180.4505
180.4505
178.75054
180.4505
178.75054
180.4505
180.4505
180.4505
180.4505
180.4505
180.4505
180.4505
180.4505
180.4505
180.4505
180.4505
180.4505
178.75054
180.4505
180.4505
180.4505
178.75054
180.4505
180.4505
180.4505
180.4505
180.4505
178.75054
178.75054
178.75054