/*--------------------------------*- C++ -*----------------------------------*\
  =========                 |
  \\      /  F ield         | OpenFOAM: The Open Source CFD Toolbox
   \\    /   O peration     | Website:  https://openfoam.org
    \\  /    A nd           | Version:  8
     \\/     M anipulation  |
\*---------------------------------------------------------------------------*/
/*   Windows 32 and 64 bit porting by blueCAPE: http://www.bluecape.com.pt   *\
|  Based on Windows porting (2.0.x v4) by Symscape: http://www.symscape.com   |
\*---------------------------------------------------------------------------*/
FoamFile
{
    version     2.0;
    format      ascii;
    class       scalarListList;
    location    "constant/air";
    object      divqrsw;
}
// * * * * * * * * * * * * * * * * * * * * * * * * * * * * * * * * * * * * * //


5
(

2246
(
0
0
0
0
0
0
0
0
0
0
0
0
0
0
0
0
0
0
0
0
0
0
0
0
0
0
0
0
0
0
0
0
0
0
0
0
0
0
0
0
0
0
0
0
0
0
0
0
0
0
0
0
0
0
0
0
0
0
0
0
0
0
0
0
0
0
0
0
0
0
0
0
0
0
0
0
0
0
0
0
0
0
0
0
0
0
0
0
0
0
0
0
0
0
0
0
0
0
0
0
0
0
0
0
0
0
0
0
0
0
0
0
0
0
0
0
0
0
0
0
0
0
0
0
0
0
0
0
0
0
0
0
0
0
0
0
0
0
0
0
0
0
0
0
0
0
0
0
0
0
0
0
0
0
0
0
0
0
0
0
0
0
0
0
0
0
0
0
0
0
0
0
0
0
0
0
0
0
0
0
0
0
0
0
0
0
0
0
0
0
0
0
0
0
0
0
0
0
0
0
0
0
0
0
0
0
0
0
0
0
0
0
0
0
0
0
0
0
0
0
0
0
0
0
0
0
0
0
0
0
0
-63.579445
0
0
0
0
0
0
0
0
-23.195164
0
0
0
0
0
0
0
0
0
-26.404619
0
0
0
0
0
0
0
0
0
0
0
0
0
0
0
0
0
0
0
0
0
0
0
0
0
0
0
0
0
0
0
0
0
0
0
0
0
0
0
0
0
0
0
0
0
0
0
0
0
0
0
0
0
0
0
0
0
0
0
0
0
0
0
0
0
0
0
0
0
0
0
0
0
0
0
0
0
0
0
0
0
0
0
0
0
0
0
0
0
0
0
0
0
0
0
0
0
0
0
0
0
0
0
0
0
0
0
0
0
0
0
0
0
0
0
0
0
0
0
0
0
0
0
0
0
0
0
0
0
0
0
0
0
0
0
0
0
0
0
0
0
0
0
0
0
0
0
0
0
0
0
0
0
0
0
0
0
0
0
0
0
0
0
0
0
0
0
0
0
0
0
0
0
0
0
0
0
0
0
0
0
0
0
0
0
0
0
0
0
0
0
0
0
0
0
0
0
0
0
0
0
0
0
0
0
0
0
0
0
0
0
0
0
0
0
0
0
0
0
0
0
0
0
0
0
0
0
0
0
0
0
0
0
0
0
0
0
0
0
0
0
0
0
0
0
0
0
0
0
0
0
0
0
0
0
0
0
0
0
0
0
0
0
0
0
0
0
0
0
0
0
0
0
0
0
0
0
0
0
0
0
0
0
0
0
0
0
0
0
0
0
0
0
0
0
0
0
0
0
0
0
0
0
0
0
0
0
0
0
0
0
0
0
0
0
0
0
0
0
0
0
0
0
0
0
0
0
0
0
0
0
0
0
0
0
0
0
0
0
0
0
0
0
0
0
0
0
0
0
0
0
0
0
0
0
0
0
0
0
0
0
0
0
0
0
0
0
0
0
0
0
0
0
0
0
0
0
0
0
0
0
0
0
0
0
0
0
0
0
0
0
0
0
0
0
0
0
0
0
0
0
0
0
0
0
0
0
0
0
0
0
0
0
0
0
0
0
0
0
0
0
0
0
0
0
0
0
0
0
0
0
0
0
0
0
0
0
0
0
0
0
0
0
0
0
0
0
0
0
0
0
0
0
0
0
0
0
0
0
0
0
0
0
0
0
0
0
0
0
0
0
0
0
0
0
0
0
0
0
0
0
0
0
0
0
0
0
0
0
0
0
0
0
0
0
0
0
0
0
0
0
0
0
0
0
0
0
0
0
0
0
0
0
0
0
0
0
0
0
0
0
0
0
0
0
0
0
0
0
0
0
0
0
0
0
0
0
0
0
0
0
0
0
0
0
0
0
0
0
0
0
0
0
0
0
0
0
0
0
0
0
0
0
0
0
0
0
0
0
0
0
0
0
0
0
0
0
0
0
0
0
0
0
0
0
0
0
0
0
0
0
0
0
0
0
0
-43.24388
-144.13032
0
-82.276749
0
0
-92.986726
-41.683652
-120.73236
0
0
0
0
-32.335702
0
-19.454221
0
0
0
0
0
0
0
0
-8.3472437
0
-13.645182
0
0
0
-27.48609
-13.028483
-11.521899
-15.180939
-16.77768
0
0
0
0
0
0
0
0
0
0
0
0
0
-15.677351
0
0
-38.392346
-20.560434
0
0
-31.623765
-17.58131
0
0
0
0
0
0
0
-36.981808
-127.3028
-22.765714
0
0
0
-73.403894
0
-70.615535
0
0
0
-10.546755
0
-16.336176
0
0
0
0
0
0
0
0
-73.419718
-55.264336
-31.775122
-97.032056
-14.690997
-110.22539
-20.357252
0
0
0
0
0
0
-18.167069
0
0
0
0
0
0
0
0
0
0
0
0
0
0
0
0
0
0
0
-78.476038
-85.800724
-100.06832
-80.452583
-91.910532
-88.874847
0
0
0
0
-61.615716
-55.200308
-45.607207
-18.535347
-23.016431
-21.998051
-18.839908
-17.189537
-22.891672
-19.014876
0
-72.339374
0
-81.44517
-74.959403
-86.978777
-68.393197
0
0
0
-52.865487
-66.386755
-71.857009
-49.969216
0
0
0
0
0
0
0
-28.813185
-25.619978
-33.421564
-22.693502
-28.658336
-32.757941
-22.689633
0
0
0
0
0
0
0
-9.8405219
0
0
0
0
0
0
0
0
0
0
0
0
-12.580044
0
0
0
0
0
-98.247416
-116.56378
-158.10121
-152.10405
-115.87645
-74.190325
-56.452756
-49.078494
-52.937694
-60.335772
-62.811168
-65.707481
-98.991663
-158.87912
-143.20095
-84.867823
-154.23033
-86.200604
-98.300824
0
-109.24739
0
-90.86989
0
-120.25601
0
0
0
0
0
0
0
0
0
-98.672877
-115.79804
0
-118.30066
0
0
-69.437396
-126.23754
-73.717442
-108.74488
-75.449245
-117.82066
-67.000963
0
0
0
0
0
0
0
0
0
0
0
0
0
0
0
0
0
0
-16.262243
0
0
-30.682594
-43.49
-29.647265
-27.746798
-25.139021
-39.656217
-34.916444
-22.056405
0
0
-25.774353
-20.552968
0
-31.210454
-21.759022
-19.274892
-16.011771
-23.057758
-20.508809
0
-25.469161
0
0
0
0
0
0
0
0
0
0
0
0
0
0
0
0
-10.423456
0
0
-8.0965033
0
0
0
-11.890433
0
-8.8924444
0
0
-12.106658
0
0
0
-13.513824
0
-8.4428745
-19.087706
-24.770781
-24.800221
-23.618743
-21.061381
-23.047891
-20.898167
-15.584617
-18.894581
-14.0661
0
-14.143039
0
-20.037735
-14.559436
-14.92107
-12.932089
-9.2516627
-13.082419
-11.011984
-15.486839
-15.700871
0
-21.699309
-14.259389
-17.151588
0
-20.17635
-15.261797
-13.576354
-19.672329
-14.610296
-17.18648
-11.833662
-17.238838
-11.944706
0
0
0
-10.320497
0
0
0
0
0
0
0
0
0
0
0
0
-72.055113
0
0
0
-55.945766
-51.805816
-44.96127
-34.66894
-59.020973
-47.399479
-42.289059
-51.779974
0
-23.874187
-31.48738
-39.899203
-40.341834
-30.016407
0
0
0
0
0
0
0
-32.2266
-19.772997
-26.661791
-16.905584
-25.365901
-33.840228
-18.732796
0
0
0
0
0
0
0
0
0
0
-73.631781
0
-97.774686
0
0
0
0
0
0
0
0
0
0
0
0
0
0
0
-55.379206
0
-66.765415
-41.942241
0
-58.752838
0
-44.722633
-48.247131
-45.72766
-32.312219
-55.799582
-39.344542
-38.924327
-72.792716
-139.32859
-94.154351
-80.022694
-88.89564
-95.074792
-70.157506
-35.752276
-20.884506
-28.231395
-27.473164
-29.634058
-35.116848
-22.87651
0
0
0
0
0
0
0
0
0
-80.798168
0
0
0
-66.819441
0
-72.482198
0
-76.986728
0
0
-74.021349
0
0
0
0
0
0
0
0
-37.563907
0
0
0
-39.284762
0
0
0
-13.060717
-16.93481
0
0
-20.637857
0
0
0
0
0
0
0
0
-23.766908
-14.596774
0
0
-23.634029
0
0
0
0
0
0
0
-33.321436
0
0
0
0
0
0
0
-54.664041
-74.212734
-47.838981
-56.51035
-58.912804
-69.597363
-47.052708
-52.534102
-62.321406
-88.135431
-72.018532
-55.040906
-57.55097
-70.557207
-27.145295
-18.636574
-16.420849
-21.877346
-25.889392
-19.362917
-24.480778
-59.853445
-91.461533
-71.231999
-98.162516
-64.076378
-66.054601
-82.99203
-29.894202
-28.569025
-24.137281
-18.19776
-21.496529
-32.433668
-27.478513
-47.359319
-47.097029
-52.55989
-35.829589
-46.030274
-58.339772
-40.282819
0
0
0
0
0
0
0
0
0
-22.031981
0
0
0
0
0
0
0
0
0
0
0
0
0
0
0
0
0
0
0
0
0
0
0
0
0
0
0
0
0
0
0
0
0
0
0
0
0
0
0
-14.182976
0
-11.218792
0
0
0
0
0
0
0
0
0
0
0
-17.583183
-18.896848
-24.102896
0
0
0
0
0
0
-44.006357
0
0
0
0
0
0
0
0
-31.283816
-28.376834
-39.731913
-28.202464
-35.844881
-25.146942
-34.393608
0
0
0
0
0
0
0
0
0
0
0
0
0
0
0
0
0
0
0
0
0
0
0
0
0
0
0
0
0
0
0
0
0
0
0
0
0
0
0
0
0
0
0
0
0
0
0
0
0
0
0
0
0
0
0
0
0
0
0
0
0
0
0
0
0
0
0
0
0
0
0
0
0
0
0
0
0
0
0
0
0
0
0
0
0
0
0
0
0
0
0
0
0
0
0
0
0
0
0
0
0
0
0
0
0
0
0
0
0
0
0
0
0
0
0
0
0
0
0
0
0
0
0
0
0
0
0
0
0
0
0
0
0
0
0
0
0
0
0
0
0
0
0
0
0
0
0
0
0
0
0
0
0
0
0
0
0
0
0
0
0
0
0
0
0
0
0
0
0
0
0
0
0
0
0
0
0
0
0
0
0
0
0
0
0
0
0
0
0
0
0
0
0
0
0
0
0
0
0
0
0
0
0
0
0
0
0
0
0
0
0
0
0
0
0
0
0
0
0
0
0
0
0
0
0
0
0
0
0
0
0
0
0
0
0
0
0
0
0
0
0
0
0
0
0
0
0
0
0
0
0
0
0
0
0
0
0
0
0
0
0
0
0
0
0
0
0
0
0
0
0
0
0
0
0
0
0
0
0
0
0
0
0
0
0
0
0
0
0
0
0
0
0
0
0
0
0
0
0
0
0
0
0
0
0
0
0
0
0
0
0
0
0
0
0
0
0
0
0
0
0
0
0
0
0
0
0
0
0
0
0
0
0
0
0
0
0
0
0
0
0
0
0
0
0
0
0
0
0
0
0
0
0
0
0
0
0
0
0
0
0
0
0
0
0
0
0
0
0
0
0
0
0
0
0
0
0
0
0
0
0
0
0
0
0
0
0
0
0
0
0
0
0
0
0
0
0
0
0
0
0
0
0
0
0
0
0
0
0
0
0
0
0
0
0
0
0
0
0
0
0
0
0
0
0
0
0
0
0
0
0
0
0
0
0
0
0
0
0
0
0
0
0
0
0
0
0
0
0
0
0
0
0
0
0
0
0
0
0
0
0
0
0
0
0
0
0
0
0
0
0
0
0
0
0
0
0
0
0
0
0
0
0
0
0
0
0
0
0
0
0
0
0
0
0
0
0
0
0
0
0
0
0
0
0
0
0
0
0
0
0
0
0
0
0
0
0
0
0
0
0
0
0
0
0
0
0
0
0
0
0
0
0
0
0
0
0
0
0
0
0
0
0
0
0
0
0
0
0
0
0
0
0
0
0
0
0
0
0
0
0
0
0
0
0
0
0
0
0
0
0
0
0
0
0
0
0
0
0
0
0
0
0
0
0
0
0
0
0
0
0
0
0
0
0
0
0
0
0
0
0
0
0
0
0
0
0
0
0
0
0
0
0
0
0
0
0
0
0
0
0
0
0
0
0
0
0
0
0
0
0
0
0
0
0
0
0
0
0
0
0
0
0
0
0
0
0
0
0
0
0
0
0
0
0
0
0
0
0
0
0
0
0
0
0
0
0
0
0
0
0
0
0
0
0
0
0
0
0
0
0
0
0
0
0
0
0
0
0
0
0
0
0
0
0
0
0
0
0
0
0
0
0
0
0
0
0
0
0
0
0
0
0
0
0
0
0
0
0
0
0
0
0
0
0
0
0
0
0
0
0
0
0
0
0
0
0
0
0
0
0
)


2246
(
0
0
0
0
0
0
0
0
0
0
0
0
0
0
0
0
0
0
0
0
0
0
0
0
0
0
0
0
0
0
0
0
0
0
0
0
0
0
0
0
0
0
0
0
0
0
0
0
0
0
0
0
0
0
0
0
0
0
0
0
0
0
0
0
0
0
0
0
0
0
0
0
0
0
0
0
0
0
0
0
0
0
0
0
0
0
0
0
0
0
0
0
0
0
0
0
0
0
0
0
0
0
0
0
0
0
0
0
0
0
0
0
0
0
0
0
0
0
0
0
0
0
0
0
0
0
0
0
0
0
0
0
0
0
0
0
0
0
0
0
0
0
0
0
0
0
0
0
0
0
0
0
0
0
0
0
0
0
0
0
0
0
0
0
0
0
0
0
0
0
0
0
0
0
0
0
0
0
0
0
0
0
0
0
0
0
0
0
0
0
0
0
0
0
0
0
0
0
0
0
0
0
0
0
0
0
0
0
0
0
0
0
0
0
0
0
0
0
0
0
0
0
0
0
0
0
0
0
0
0
0
-108.79929
0
0
0
0
0
0
0
0
-19.421814
0
0
0
0
0
0
0
0
0
-22.103534
0
0
0
0
0
0
0
0
0
0
0
0
0
0
0
0
0
0
0
0
0
0
0
0
0
0
0
0
0
0
0
0
0
0
0
0
0
0
0
0
0
0
0
0
0
0
0
0
0
0
0
0
0
0
0
0
0
0
0
0
0
0
0
0
0
0
0
0
0
0
0
0
0
0
0
0
0
0
0
0
0
0
0
0
0
0
0
0
0
0
0
0
0
0
0
0
0
0
0
0
0
0
0
0
0
0
0
0
0
0
0
0
0
0
0
0
0
0
0
0
0
0
0
0
0
0
0
0
0
0
0
0
0
0
0
0
0
0
0
0
0
0
0
0
0
0
0
0
0
0
0
0
0
0
0
0
0
0
0
0
0
0
0
0
0
0
0
0
0
0
0
0
0
0
0
0
0
0
0
0
0
0
0
0
0
0
0
0
0
0
0
0
0
0
0
0
0
0
0
0
0
0
0
0
0
0
0
0
0
0
0
0
0
0
0
0
0
0
0
0
0
0
0
0
0
0
0
0
0
0
0
0
0
0
0
0
0
0
0
0
0
0
0
0
0
0
0
0
0
0
0
0
0
0
0
0
0
0
0
0
0
0
0
0
0
0
0
0
0
0
0
0
0
0
0
0
0
0
0
0
0
0
0
0
0
0
0
0
0
0
0
0
0
0
0
0
0
0
0
0
0
0
0
0
0
0
0
0
0
0
0
0
0
0
0
0
0
0
0
0
0
0
0
0
0
0
0
0
0
0
0
0
0
0
0
0
0
0
0
0
0
0
0
0
0
0
0
0
0
0
0
0
0
0
0
0
0
0
0
0
0
0
0
0
0
0
0
0
0
0
0
0
0
0
0
0
0
0
0
0
0
0
0
0
0
0
0
0
0
0
0
0
0
0
0
0
0
0
0
0
0
0
0
0
0
0
0
0
0
0
0
0
0
0
0
0
0
0
0
0
0
0
0
0
0
0
0
0
0
0
0
0
0
0
0
0
0
0
0
0
0
0
0
0
0
0
0
0
0
0
0
0
0
0
0
0
0
0
0
0
0
0
0
0
0
0
0
0
0
0
0
0
0
0
0
0
0
0
0
0
0
0
0
0
0
0
0
0
0
0
0
0
0
0
0
0
0
0
0
0
0
0
0
0
0
0
0
0
0
0
0
0
0
0
0
0
0
0
0
0
0
0
0
0
0
0
0
0
0
0
0
0
0
0
0
0
0
0
0
0
0
0
0
0
0
0
0
0
0
0
0
0
0
0
0
0
0
0
0
0
0
0
0
0
0
0
0
0
0
0
0
0
0
0
0
0
0
0
0
0
0
0
0
0
0
0
0
0
0
0
0
0
0
0
0
0
-66.643038
-108.45435
0
-119.38139
0
0
-116.8699
-43.67769
-105.98923
0
0
0
0
-59.452121
0
-41.487394
0
0
0
0
0
0
0
0
-7.9043126
0
-24.487364
0
0
0
-37.799724
-9.0632271
-10.341229
-20.623254
-29.530582
0
0
0
0
0
0
0
0
0
0
0
0
0
-36.838602
0
0
-64.142072
-33.071316
0
0
-35.307287
-22.698846
0
0
0
0
0
0
0
-61.971797
-105.23809
-43.492544
0
0
0
-54.092431
0
-108.02773
0
0
0
-9.8723816
0
-26.245478
0
0
0
0
0
0
0
0
-102.14185
-70.953605
-41.14858
-60.968198
-13.165243
-111.21697
-31.788402
0
0
0
0
0
0
-36.427273
0
0
0
0
0
0
0
0
0
0
0
0
0
0
0
0
0
0
0
-97.514213
-94.599599
-114.43685
-119.91782
-114.32953
-112.7746
0
0
0
0
-116.18982
-92.973859
-100.65302
-17.225139
-22.504339
-17.685029
-16.263497
-14.074473
-20.638848
-19.668581
0
-102.77507
0
-105.09458
-128.16768
-115.77448
-103.45091
0
0
0
-94.161951
-114.2688
-112.21766
-97.161729
0
0
0
0
0
0
0
-29.537569
-26.044151
-29.617337
-19.139655
-25.810823
-32.978969
-22.979136
0
0
0
0
0
0
0
-7.2715293
0
0
0
0
0
0
0
0
0
0
0
0
-9.443579
0
0
0
0
0
-96.321157
-118.28383
-105.73073
-117.92816
-109.82527
-109.01407
-94.161406
-70.337879
-70.969577
-77.48899
-104.43601
-96.295692
-115.87406
-114.8874
-108.32935
-78.300769
-122.71857
-88.829633
-101.28341
0
-126.57683
0
-96.641842
0
-113.94615
0
0
0
0
0
0
0
0
0
-113.81079
-124.53594
0
-123.44559
0
0
-60.916317
-99.597375
-60.547921
-87.747649
-69.698868
-88.101726
-54.38097
0
0
0
0
0
0
0
0
0
0
0
0
0
0
0
0
0
0
-38.622199
0
0
-66.431572
-85.655389
-57.304409
-53.779628
-52.042634
-75.978638
-74.60321
-49.350083
0
0
-54.942493
-49.194341
0
-59.546628
-57.057854
-54.523353
-37.410632
-48.199488
-44.745247
0
-64.837382
0
0
0
0
0
0
0
0
0
0
0
0
0
0
0
0
-11.169959
0
0
-8.6563932
0
0
0
-16.31475
0
-13.161177
0
0
-16.859687
0
0
0
-28.082548
0
-13.45757
-21.507607
-26.948844
-37.214586
-36.297073
-34.601011
-25.384917
-23.805163
-15.916917
-16.501199
-10.920511
0
-12.549205
0
-19.71644
-14.169286
-13.301391
-13.954197
-8.0955216
-10.895851
-11.191438
-16.780087
-20.313841
0
-36.49476
-14.287705
-32.904293
0
-24.758638
-18.297407
-26.61157
-33.260323
-19.085133
-30.699971
-16.342368
-20.394847
-12.315275
0
0
0
-8.9703841
0
0
0
0
0
0
0
0
0
0
0
0
-84.285379
0
0
0
-96.813092
-93.58125
-66.338404
-63.143327
-101.18548
-86.543003
-67.096996
-82.970433
0
-40.828684
-57.138809
-71.730553
-60.145845
-54.678702
0
0
0
0
0
0
0
-31.635667
-27.574936
-36.94847
-17.382781
-28.016241
-38.650759
-21.042631
0
0
0
0
0
0
0
0
0
0
-90.776596
0
-108.53347
0
0
0
0
0
0
0
0
0
0
0
0
0
0
0
-58.60621
0
-70.132686
-43.508387
0
-56.002528
0
-74.225957
-85.950245
-65.759471
-55.069106
-86.741552
-73.753937
-57.98475
-76.087266
-106.36118
-92.01087
-71.219287
-87.939221
-85.862665
-65.883782
-60.428247
-56.09187
-42.089054
-50.089172
-64.532052
-51.158481
-48.770938
0
0
0
0
0
0
0
0
0
-61.696189
0
0
0
-51.688622
0
-85.829251
0
-86.999731
0
0
-77.71473
0
0
0
0
0
0
0
0
-34.136454
0
0
0
-39.492491
0
0
0
-13.790703
-12.495596
0
0
-17.063581
0
0
0
0
0
0
0
0
-26.917698
-18.748417
0
0
-21.392124
0
0
0
0
0
0
0
-31.675055
0
0
0
0
0
0
0
-54.656302
-94.825388
-46.501613
-90.273241
-56.02135
-102.2833
-50.19992
-43.231194
-40.830238
-67.910653
-53.208842
-36.269227
-44.287311
-70.2286
-25.554618
-16.395346
-17.099216
-17.168049
-21.61666
-20.055836
-21.440192
-53.791344
-108.79211
-58.672808
-94.21916
-51.683878
-59.830004
-104.63705
-29.721859
-33.629852
-35.852393
-21.914702
-23.849926
-39.149133
-25.900543
-41.344153
-57.42696
-44.546098
-24.951772
-30.737522
-67.857398
-37.638821
0
0
0
0
0
0
0
0
0
-31.487104
0
0
0
0
0
0
0
0
0
0
0
0
0
0
0
0
0
0
0
0
0
0
0
0
0
0
0
0
0
0
0
0
0
0
0
0
0
0
0
-10.232736
0
-8.4750354
0
0
0
0
0
0
0
0
0
0
0
-12.759232
-13.212472
-17.91517
0
0
0
0
0
0
-23.892979
0
0
0
0
0
0
0
0
-33.790989
-30.613907
-47.27811
-38.671068
-37.940044
-27.250658
-43.068596
0
0
0
0
0
0
0
0
0
0
0
0
0
0
0
0
0
0
0
0
0
0
0
0
0
0
0
0
0
0
0
0
0
0
0
0
0
0
0
0
0
0
0
0
0
0
0
0
0
0
0
0
0
0
0
0
0
0
0
0
0
0
0
0
0
0
0
0
0
0
0
0
0
0
0
0
0
0
0
0
0
0
0
0
0
0
0
0
0
0
0
0
0
0
0
0
0
0
0
0
0
0
0
0
0
0
0
0
0
0
0
0
0
0
0
0
0
0
0
0
0
0
0
0
0
0
0
0
0
0
0
0
0
0
0
0
0
0
0
0
0
0
0
0
0
0
0
0
0
0
0
0
0
0
0
0
0
0
0
0
0
0
0
0
0
0
0
0
0
0
0
0
0
0
0
0
0
0
0
0
0
0
0
0
0
0
0
0
0
0
0
0
0
0
0
0
0
0
0
0
0
0
0
0
0
0
0
0
0
0
0
0
0
0
0
0
0
0
0
0
0
0
0
0
0
0
0
0
0
0
0
0
0
0
0
0
0
0
0
0
0
0
0
0
0
0
0
0
0
0
0
0
0
0
0
0
0
0
0
0
0
0
0
0
0
0
0
0
0
0
0
0
0
0
0
0
0
0
0
0
0
0
0
0
0
0
0
0
0
0
0
0
0
0
0
0
0
0
0
0
0
0
0
0
0
0
0
0
0
0
0
0
0
0
0
0
0
0
0
0
0
0
0
0
0
0
0
0
0
0
0
0
0
0
0
0
0
0
0
0
0
0
0
0
0
0
0
0
0
0
0
0
0
0
0
0
0
0
0
0
0
0
0
0
0
0
0
0
0
0
0
0
0
0
0
0
0
0
0
0
0
0
0
0
0
0
0
0
0
0
0
0
0
0
0
0
0
0
0
0
0
0
0
0
0
0
0
0
0
0
0
0
0
0
0
0
0
0
0
0
0
0
0
0
0
0
0
0
0
0
0
0
0
0
0
0
0
0
0
0
0
0
0
0
0
0
0
0
0
0
0
0
0
0
0
0
0
0
0
0
0
0
0
0
0
0
0
0
0
0
0
0
0
0
0
0
0
0
0
0
0
0
0
0
0
0
0
0
0
0
0
0
0
0
0
0
0
0
0
0
0
0
0
0
0
0
0
0
0
0
0
0
0
0
0
0
0
0
0
0
0
0
0
0
0
0
0
0
0
0
0
0
0
0
0
0
0
0
0
0
0
0
0
0
0
0
0
0
0
0
0
0
0
0
0
0
0
0
0
0
0
0
0
0
0
0
0
0
0
0
0
0
0
0
0
0
0
0
0
0
0
0
0
0
0
0
0
0
0
0
0
0
0
0
0
0
0
0
0
0
0
0
0
0
0
0
0
0
0
0
0
0
0
0
0
0
0
0
0
0
0
0
0
0
0
0
0
0
0
0
0
0
0
0
0
0
0
0
0
0
0
0
0
0
0
0
0
0
0
0
0
0
0
0
0
0
0
0
0
0
0
0
0
0
0
0
0
0
0
0
0
0
0
0
0
0
0
0
0
0
0
0
0
0
0
0
0
0
0
0
0
0
0
0
0
0
0
0
0
0
0
0
0
0
0
0
0
0
0
0
0
0
0
0
0
0
0
0
0
0
0
0
0
0
0
0
0
0
0
0
0
0
0
0
0
0
0
0
0
0
0
)


2246
(
0
0
0
0
0
0
0
0
0
0
0
0
0
0
0
0
0
0
0
0
0
0
0
0
0
0
0
0
0
0
0
0
0
0
0
0
0
0
0
0
0
0
0
0
0
0
0
0
0
0
0
0
0
0
0
0
0
0
0
0
0
0
0
0
0
0
0
0
0
0
0
0
0
0
0
0
0
0
0
0
0
0
0
0
0
0
0
0
0
0
0
0
0
0
0
0
0
0
0
0
0
0
0
0
0
0
0
0
0
0
0
0
0
0
0
0
0
0
0
0
0
0
0
0
0
0
0
0
0
0
0
0
0
0
0
0
0
0
0
0
0
0
0
0
0
0
0
0
0
0
0
0
0
0
0
0
0
0
0
0
0
0
0
0
0
0
0
0
0
0
0
0
0
0
0
0
0
0
0
0
0
0
0
0
0
0
0
0
0
0
0
0
0
0
0
0
0
0
0
0
0
0
0
0
0
0
0
0
0
0
0
0
0
0
0
0
0
0
0
0
0
0
0
0
0
0
0
0
0
0
0
0
0
0
0
0
0
0
0
0
-25.695771
0
0
0
0
0
0
0
0
0
-27.253223
0
0
0
0
0
0
0
0
0
0
0
0
0
0
0
0
0
0
0
0
0
0
0
0
0
0
0
0
0
0
0
0
0
0
0
0
0
0
0
0
0
0
0
0
0
0
0
0
0
0
0
0
0
0
0
0
0
0
0
0
0
0
0
0
0
0
0
0
0
0
0
0
0
0
0
0
0
0
0
0
0
0
0
0
0
0
0
0
0
0
0
0
0
0
0
0
0
0
0
0
0
0
0
0
0
0
0
0
0
0
0
0
0
0
0
0
0
0
0
0
0
0
0
0
0
0
0
0
0
0
0
0
0
0
0
0
0
0
0
0
0
0
0
0
0
0
0
0
0
0
0
0
0
0
0
0
0
0
0
0
0
0
0
0
0
0
0
0
0
0
0
0
0
0
0
0
0
0
0
0
0
0
0
0
0
0
0
0
0
0
0
0
0
0
0
0
0
0
0
0
0
0
0
0
0
0
0
0
0
0
0
0
0
0
0
0
0
0
0
0
0
0
0
0
0
0
0
0
0
0
0
0
0
0
0
0
0
0
0
0
0
0
0
0
0
0
0
0
0
0
0
0
0
0
0
0
0
0
0
0
0
0
0
0
0
0
0
0
0
0
0
0
0
0
0
0
0
0
0
0
0
0
0
0
0
0
0
0
0
0
0
0
0
0
0
0
0
0
0
0
0
0
0
0
0
0
0
0
0
0
0
0
0
0
0
0
0
0
0
0
0
0
0
0
0
0
0
0
0
0
0
0
0
0
0
0
0
0
0
0
0
0
0
0
0
0
0
0
0
0
0
0
0
0
0
0
0
0
0
0
0
0
0
0
0
0
0
0
0
0
0
0
0
0
0
0
0
0
0
0
0
0
0
0
0
0
0
0
0
0
0
0
0
0
0
0
0
0
0
0
0
0
0
0
0
0
0
0
0
0
0
0
0
0
0
0
0
0
0
0
0
0
0
0
0
0
0
0
0
0
0
0
0
0
0
0
0
0
0
0
0
0
0
0
0
0
0
0
0
0
0
0
0
0
0
0
0
0
0
0
0
0
0
0
0
0
0
0
0
0
0
0
0
0
0
0
0
0
0
0
0
0
0
0
0
0
0
0
0
0
0
0
0
0
0
0
0
0
0
0
0
0
0
0
0
0
0
0
0
0
0
0
0
0
0
0
0
0
0
0
0
0
0
0
0
0
0
0
0
0
0
0
0
0
0
0
0
0
0
0
0
0
0
0
0
0
0
0
0
0
0
0
0
0
0
0
0
0
0
0
0
0
0
0
0
0
0
0
0
0
0
0
0
0
0
0
0
0
0
0
0
0
0
0
0
0
0
0
0
0
0
0
0
0
0
0
-116.28981
-116.32874
0
-116.36011
0
0
-115.06839
-66.11813
-97.566836
0
0
0
0
-117.61862
0
-97.580842
0
0
0
0
0
0
0
0
-16.445474
0
-73.252602
0
0
0
-78.563108
-14.805086
-19.157133
-46.689664
-78.214125
0
0
0
0
0
0
0
0
0
0
0
0
0
0
0
0
-116.72093
-63.03262
0
0
-64.704432
-51.156269
0
0
0
0
0
0
0
-116.75113
-109.07709
-100.51086
0
0
0
-72.449062
0
-118.30838
0
0
0
-17.176906
0
-73.134097
0
0
0
0
0
0
0
0
-108.61278
-53.012743
-78.099724
-59.712326
-19.557153
-97.053965
-77.962016
0
0
0
0
0
0
0
0
0
0
0
0
0
0
0
0
0
0
0
0
0
0
0
0
0
0
-98.876271
-101.78817
-151.3574
-182.0414
-154.84182
-172.33481
0
0
0
0
0
0
0
-33.288131
-33.099297
-24.829784
-23.190036
-21.407179
-32.957735
-34.371471
0
-94.422395
0
-148.13787
-179.18617
-154.94592
-150.05473
0
0
0
0
-142.90046
-148.80804
0
0
0
0
0
0
0
0
-35.751251
-34.662345
-30.701256
-24.201407
-26.96003
-37.621136
-34.458372
0
0
0
0
0
0
0
-10.354607
0
0
0
0
0
0
0
0
0
0
0
0
-11.192363
0
0
0
0
0
-107.75274
-150.58242
-137.4912
-142.62494
-160.15112
-152.36104
-159.5471
-117.36433
-115.43523
-117.41018
-154.39913
-157.52456
-152.95872
-135.57283
-122.16059
-115.4769
-145.38652
-121.50648
-152.02167
0
-113.53017
0
-118.93572
0
-117.45531
0
0
0
0
0
0
0
0
0
-101.63639
-107.07784
0
-101.81174
0
0
-65.376821
-97.834939
-84.883967
-83.173636
-87.856959
-85.150364
-59.094761
0
0
0
0
0
0
0
0
0
0
0
0
0
0
0
0
0
0
-98.978089
0
0
-123.12029
-159.30888
-113.60664
-118.45602
-113.45569
-147.16407
-140.94647
-93.681873
0
0
-92.94793
-95.14621
0
-114.4566
0
0
-87.074715
-115.20262
-111.54909
0
0
0
0
0
0
0
0
0
0
0
0
0
0
0
0
0
0
-28.945662
0
0
-25.447112
0
0
0
-48.054392
0
-41.816504
0
0
-43.323846
0
0
0
-68.194085
0
-37.0658
-51.561452
-53.889764
-78.940269
-79.619256
-79.13267
-53.736512
-51.684848
-29.31644
-21.77783
-20.42523
0
-18.075141
0
-29.553947
-31.80453
-20.420766
-32.409717
-16.995641
-18.643725
-29.101408
-34.169852
-46.136586
0
-68.903187
-31.431586
-69.656257
0
-47.286528
-48.942027
-73.0115
-78.6916
-51.17653
-77.450801
-46.793216
-50.493688
-26.84245
0
0
0
-15.636901
0
0
0
0
0
0
0
0
0
0
0
0
-119.49263
0
0
0
-149.13939
-157.26558
-118.33054
-114.48147
-155.66755
-145.83311
-119.75293
-119.86397
0
-74.214865
-94.310353
-113.71332
-103.45008
-78.733716
0
0
0
0
0
0
0
-45.782027
-51.524025
-69.700112
-34.756232
-47.422026
-71.337574
-35.514327
0
0
0
0
0
0
0
0
0
0
0
0
-150.87159
0
0
0
0
0
0
0
0
0
0
0
0
0
0
0
0
0
-73.529084
-81.47748
0
-95.096079
0
-147.81194
-159.37921
-114.21954
-116.63912
-155.33386
-146.20275
-111.38262
-137.91375
-127.58911
-95.165579
-110.20838
-147.1659
-107.12909
-102.17918
0
0
-93.068464
-114.7106
0
-107.32886
0
0
0
0
0
0
0
0
0
0
-102.88158
0
0
0
-98.632877
0
-107.56144
0
-115.84315
0
0
-99.7009
0
0
0
0
0
0
0
0
-51.553081
0
0
0
-42.215089
0
0
0
-29.878195
-18.139221
0
0
-30.406002
0
0
0
0
0
0
0
0
-65.229161
-48.296621
0
0
-45.454971
0
0
0
0
0
0
0
-33.016533
0
0
0
0
0
0
0
-49.93515
-77.377102
-61.142087
-66.722923
-69.536933
-81.165917
-48.832455
-38.688994
-37.019558
-76.979965
-61.915214
-31.439392
-43.098739
-82.843905
-35.194423
-20.761899
-32.9293
-20.67833
-22.785803
-34.334748
-33.466045
-54.807355
-94.232434
-78.228555
-85.841692
-57.621572
-74.248634
-85.641163
-50.057324
-71.293434
-78.667382
-50.919298
-50.315567
-74.954855
-48.983634
-38.158625
-61.020069
-60.690632
-26.557327
-28.578842
-75.765586
-37.582744
0
0
0
0
0
0
0
0
0
0
0
0
0
0
0
0
0
0
0
0
0
0
0
0
0
0
0
0
0
0
0
0
0
0
0
0
0
0
0
0
0
0
0
0
0
0
0
0
0
-13.883009
0
-12.109193
0
0
0
0
0
0
0
0
0
0
0
-14.841021
-13.065064
-17.125063
0
0
0
0
0
0
-21.256504
0
0
0
0
0
0
0
0
-53.218422
-54.11811
-77.544935
-78.735569
-55.023311
-52.288106
-76.639436
0
0
0
0
0
0
0
0
0
0
0
0
0
0
0
0
0
0
0
0
0
0
0
0
0
0
0
0
0
0
0
0
0
0
0
0
0
0
0
0
0
0
0
0
0
0
0
0
0
0
0
0
0
0
0
0
0
0
0
0
0
0
0
0
0
0
0
0
0
0
0
0
0
0
0
0
0
0
0
0
0
0
0
0
0
0
0
0
0
0
0
0
0
0
0
0
0
0
0
0
0
0
0
0
0
0
0
0
0
0
0
0
0
0
0
0
0
0
0
0
0
0
0
0
0
0
0
0
0
0
0
0
0
0
0
0
0
0
0
0
0
0
0
0
0
0
0
0
0
0
0
0
0
0
0
0
0
0
0
0
0
0
0
0
0
0
0
0
0
0
0
0
0
0
0
0
0
0
0
0
0
0
0
0
0
0
0
0
0
0
0
0
0
0
0
0
0
0
0
0
0
0
0
0
0
0
0
0
0
0
0
0
0
0
0
0
0
0
0
0
0
0
0
0
0
0
0
0
0
0
0
0
0
0
0
0
0
0
0
0
0
0
0
0
0
0
0
0
0
0
0
0
0
0
0
0
0
0
0
0
0
0
0
0
0
0
0
0
0
0
0
0
0
0
0
0
0
0
0
0
0
0
0
0
0
0
0
0
0
0
0
0
0
0
0
0
0
0
0
0
0
0
0
0
0
0
0
0
0
0
0
0
0
0
0
0
0
0
0
0
0
0
0
0
0
0
0
0
0
0
0
0
0
0
0
0
0
0
0
0
0
0
0
0
0
0
0
0
0
0
0
0
0
0
0
0
0
0
0
0
0
0
0
0
0
0
0
0
0
0
0
0
0
0
0
0
0
0
0
0
0
0
0
0
0
0
0
0
0
0
0
0
0
0
0
0
0
0
0
0
0
0
0
0
0
0
0
0
0
0
0
0
0
0
0
0
0
0
0
0
0
0
0
0
0
0
0
0
0
0
0
0
0
0
0
0
0
0
0
0
0
0
0
0
0
0
0
0
0
0
0
0
0
0
0
0
0
0
0
0
0
0
0
0
0
0
0
0
0
0
0
0
0
0
0
0
0
0
0
0
0
0
0
0
0
0
0
0
0
0
0
0
0
0
0
0
0
0
0
0
0
0
0
0
0
0
0
0
0
0
0
0
0
0
0
0
0
0
0
0
0
0
0
0
0
0
0
0
0
0
0
0
0
0
0
0
0
0
0
0
0
0
0
0
0
0
0
0
0
0
0
0
0
0
0
0
0
0
0
0
0
0
0
0
0
0
0
0
0
0
0
0
0
0
0
0
0
0
0
0
0
0
0
0
0
0
0
0
0
0
0
0
0
0
0
0
0
0
0
0
0
0
0
0
0
0
0
0
0
0
0
0
0
0
0
0
0
0
0
0
0
0
0
0
0
0
0
0
0
0
0
0
0
0
0
0
0
0
0
0
0
0
0
0
0
0
0
0
0
0
0
0
0
0
0
0
0
0
0
0
0
0
0
0
0
0
0
0
0
0
0
0
0
0
0
0
0
0
0
0
0
0
0
0
0
0
0
0
0
0
0
0
0
0
0
0
0
0
0
0
0
0
0
0
0
0
0
0
0
0
0
0
0
0
0
0
0
0
0
0
0
0
0
0
0
0
0
0
0
0
0
0
0
0
0
0
0
0
0
0
0
)


2246
(
0
0
0
0
0
0
0
0
0
0
0
0
0
0
0
0
0
0
0
0
0
0
0
0
0
0
0
0
0
0
0
0
0
0
0
0
0
0
0
0
0
0
0
0
0
0
0
0
0
0
0
0
0
0
0
0
0
0
0
0
0
0
0
0
0
0
0
0
0
0
0
0
0
0
0
0
0
0
0
0
0
0
0
0
0
0
0
0
0
0
0
0
0
0
0
0
0
0
0
0
0
0
0
0
0
0
0
0
0
0
0
0
0
0
0
0
0
0
0
0
0
0
0
0
0
0
0
0
0
0
0
0
0
0
0
0
0
0
0
0
0
0
0
0
0
0
0
0
0
0
0
0
0
0
0
0
0
0
0
0
0
0
0
0
0
0
0
0
0
0
0
0
0
0
0
0
0
0
0
0
0
0
0
0
0
0
0
0
0
0
0
0
0
0
0
0
0
0
0
0
0
0
0
0
0
0
0
0
0
0
0
0
0
0
0
0
0
0
0
0
0
0
0
0
0
0
0
0
0
0
0
0
0
0
0
0
0
0
0
0
-40.414432
0
0
0
0
0
0
0
0
0
-40.45107
0
0
0
0
0
0
0
0
0
0
0
0
0
0
0
0
0
0
0
0
0
0
0
0
0
0
0
0
0
0
0
0
0
0
0
0
0
0
0
0
0
0
0
0
0
0
0
0
0
0
0
0
0
0
0
0
0
0
0
0
0
0
0
0
0
0
0
0
0
0
0
0
0
0
0
0
0
0
0
0
0
0
0
0
0
0
0
0
0
0
0
0
0
0
0
0
0
0
0
0
0
0
0
0
0
0
0
0
0
0
0
0
0
0
0
0
0
0
0
0
0
0
0
0
0
0
0
0
0
0
0
0
0
0
0
0
0
0
0
0
0
0
0
0
0
0
0
0
0
0
0
0
0
0
0
0
0
0
0
0
0
0
0
0
0
0
0
0
0
0
0
0
0
0
0
0
0
0
0
0
0
0
0
0
0
0
0
0
0
0
0
0
0
0
0
0
0
0
0
0
0
0
0
0
0
0
0
0
0
0
0
0
0
0
0
0
0
0
0
0
0
0
0
0
0
0
0
0
0
0
0
0
0
0
0
0
0
0
0
0
0
0
0
0
0
0
0
0
0
0
0
0
0
0
0
0
0
0
0
0
0
0
0
0
0
0
0
0
0
0
0
0
0
0
0
0
0
0
0
0
0
0
0
0
0
0
0
0
0
0
0
0
0
0
0
0
0
0
0
0
0
0
0
0
0
0
0
0
0
0
0
0
0
0
0
0
0
0
0
0
0
0
0
0
0
0
0
0
0
0
0
0
0
0
0
0
0
0
0
0
0
0
0
0
0
0
0
0
0
0
0
0
0
0
0
0
0
0
0
0
0
0
0
0
0
0
0
0
0
0
0
0
0
0
0
0
0
0
0
0
0
0
0
0
0
0
0
0
0
0
0
0
0
0
0
0
0
0
0
0
0
0
0
0
0
0
0
0
0
0
0
0
0
0
0
0
0
0
0
0
0
0
0
0
0
0
0
0
0
0
0
0
0
0
0
0
0
0
0
0
0
0
0
0
0
0
0
0
0
0
0
0
0
0
0
0
0
0
0
0
0
0
0
0
0
0
0
0
0
0
0
0
0
0
0
0
0
0
0
0
0
0
0
0
0
0
0
0
0
0
0
0
0
0
0
0
0
0
0
0
0
0
0
0
0
0
0
0
0
0
0
0
0
0
0
0
0
0
0
0
0
0
0
0
0
0
0
0
0
0
0
0
0
0
0
0
0
0
0
0
0
0
0
0
0
0
0
0
0
0
0
0
0
0
0
0
0
0
0
0
0
0
0
0
0
0
0
0
0
0
0
0
0
0
0
0
0
0
0
0
0
0
0
0
0
0
0
0
0
0
0
0
0
0
0
0
0
0
0
0
0
0
0
0
0
0
0
0
0
0
0
0
0
0
0
0
0
0
0
0
0
0
0
0
0
0
0
-28.606775
0
0
0
0
0
0
0
0
0
0
0
0
0
0
0
0
0
0
0
0
0
0
0
0
0
0
0
0
0
0
0
0
0
0
0
0
0
0
-65.025639
0
0
0
0
0
0
0
0
0
0
0
0
0
0
0
0
0
0
0
-55.526335
0
0
0
0
0
0
0
0
0
0
0
0
0
0
0
0
0
0
0
0
0
0
0
0
0
0
0
0
0
0
0
0
0
0
0
0
0
0
0
0
0
0
0
0
-38.426368
0
0
0
0
0
0
0
0
0
0
0
0
0
0
0
0
0
0
0
0
0
0
0
0
0
0
0
-40.331637
0
-39.891205
0
0
0
0
0
0
0
0
0
0
0
0
0
0
0
0
0
0
0
0
0
0
0
0
0
0
0
0
0
0
0
0
0
0
0
0
0
0
0
0
0
0
0
0
0
0
0
0
0
0
0
0
-107.2093
0
0
0
0
0
0
0
0
0
0
0
0
0
0
0
-77.820126
0
0
0
0
-89.173032
0
0
0
0
0
0
0
0
0
0
0
0
0
0
0
0
0
0
0
0
0
0
0
0
0
0
0
0
0
0
0
0
0
0
0
0
0
0
0
0
0
0
0
0
0
0
0
0
0
0
0
0
0
0
0
0
0
0
0
0
0
0
0
0
0
0
0
0
0
0
0
0
0
0
0
0
0
0
0
0
0
0
0
0
0
0
-34.611151
0
0
0
0
0
0
0
0
0
0
0
0
0
0
0
0
0
0
0
0
0
0
0
0
0
0
0
0
0
0
0
0
0
0
0
0
0
0
0
0
0
0
0
0
0
0
0
0
0
0
0
0
0
0
0
0
0
0
0
0
0
0
0
0
0
0
0
0
-70.400669
0
0
0
0
0
-58.010641
0
0
0
0
0
0
0
0
0
0
0
0
0
0
0
0
0
0
0
0
0
0
0
0
0
0
0
0
0
0
0
0
0
0
0
0
0
0
0
0
0
0
0
0
0
0
0
0
0
0
0
0
0
0
0
0
0
0
0
0
0
0
0
0
0
0
0
0
0
0
0
0
0
0
0
0
0
0
0
0
0
0
0
0
0
0
0
0
0
0
0
0
0
0
0
0
0
0
0
0
0
0
0
0
0
0
0
0
0
0
0
0
0
0
0
0
0
0
0
0
0
0
0
0
0
0
0
0
0
0
0
0
0
0
-40.173126
0
-50.172105
-39.208465
0
0
0
0
0
0
0
0
0
0
0
0
0
0
0
0
0
0
0
0
0
0
0
0
0
0
0
0
0
0
0
0
0
0
0
0
0
0
0
0
0
0
0
0
0
0
0
0
0
0
0
0
0
0
0
0
0
0
0
0
0
0
0
0
0
0
0
0
0
0
0
0
0
0
0
0
0
0
0
-24.473294
0
-20.778536
0
0
0
0
0
0
0
0
0
0
0
-24.833715
0
-24.679941
0
0
0
0
0
0
-24.119741
0
0
0
0
0
0
0
0
0
0
0
0
0
0
0
0
0
0
0
0
0
0
0
0
0
0
0
0
0
0
0
0
0
0
0
0
0
0
0
0
0
0
0
0
0
0
0
0
0
0
0
0
0
0
0
0
0
0
0
0
0
0
0
0
0
0
0
0
0
0
0
0
0
0
0
0
0
0
0
0
0
0
0
0
0
0
0
0
0
0
0
0
0
0
0
0
0
0
0
0
0
0
0
0
0
0
0
0
0
0
0
0
0
0
0
0
0
0
0
0
0
0
0
0
0
0
0
0
0
0
0
0
0
0
0
0
0
0
0
0
0
0
0
0
0
0
0
0
0
0
0
0
0
0
0
0
0
0
0
0
0
0
0
0
0
0
0
0
0
0
0
0
0
0
0
0
0
0
0
0
0
0
0
0
0
0
0
0
0
0
0
0
0
0
0
0
0
0
0
0
0
0
0
0
0
0
0
0
0
0
0
0
0
0
0
0
0
0
0
0
0
0
0
0
0
0
0
0
0
0
0
0
0
0
0
0
0
0
0
0
0
0
0
0
0
0
0
0
0
0
0
0
0
0
0
0
0
0
0
0
0
0
0
0
0
0
0
0
0
0
0
0
0
0
0
0
0
0
0
0
0
0
0
0
0
0
0
0
0
0
0
0
0
0
0
0
0
0
0
0
0
0
0
0
0
0
0
0
0
0
0
0
0
0
0
0
0
0
0
0
0
0
0
0
0
0
0
0
0
0
0
0
0
0
0
0
0
0
0
0
0
0
0
0
0
0
0
0
0
0
0
0
0
0
0
0
0
0
0
0
0
0
0
0
0
0
0
0
0
0
0
0
0
0
0
0
0
0
0
0
0
0
0
0
0
0
0
0
0
0
0
0
0
0
0
0
0
0
0
0
0
0
0
0
0
0
0
0
0
0
0
0
0
0
0
0
0
0
0
0
0
0
0
0
0
0
0
0
0
0
0
0
0
0
0
0
0
0
0
0
0
0
0
0
0
0
0
0
0
0
0
0
0
0
0
0
0
0
0
0
0
0
0
0
0
0
0
0
0
0
0
0
0
0
0
0
0
0
0
0
0
0
0
0
0
0
0
0
0
0
0
0
0
0
0
0
0
0
0
0
0
0
0
0
0
0
0
0
0
0
0
0
0
0
0
0
0
0
0
0
0
0
0
0
0
0
0
0
0
0
0
0
0
0
0
0
0
0
0
0
0
0
0
0
0
0
0
0
0
0
0
0
0
0
0
0
0
0
0
0
0
0
0
0
0
0
0
0
0
0
0
0
0
0
0
0
0
0
0
0
0
0
0
0
0
0
0
0
0
0
0
0
0
0
0
0
0
0
0
0
0
0
0
0
0
0
0
0
0
0
0
0
0
0
0
0
0
0
0
0
0
0
0
0
0
0
0
0
0
0
0
0
0
0
0
0
0
0
0
0
0
0
0
0
0
0
0
0
0
0
0
0
0
0
0
0
0
0
0
0
0
0
0
0
0
0
0
0
0
0
0
0
0
0
0
0
0
0
0
0
0
0
0
0
0
0
0
0
0
0
0
0
0
0
0
0
0
0
0
0
0
0
0
0
0
0
0
0
0
0
0
0
0
0
0
0
0
0
0
0
0
0
0
0
0
0
0
0
0
0
0
0
0
0
0
0
0
0
0
0
0
0
0
0
0
0
0
0
0
0
0
0
0
0
0
0
)

2246{0}
)


// ************************************************************************* //
