/*--------------------------------*- C++ -*----------------------------------*\
  =========                 |
  \\      /  F ield         | OpenFOAM: The Open Source CFD Toolbox
   \\    /   O peration     | Website:  https://openfoam.org
    \\  /    A nd           | Version:  8
     \\/     M anipulation  |
\*---------------------------------------------------------------------------*/
/*   Windows 32 and 64 bit porting by blueCAPE: http://www.bluecape.com.pt   *\
|  Based on Windows porting (2.0.x v4) by Symscape: http://www.symscape.com   |
\*---------------------------------------------------------------------------*/
FoamFile
{
    version     2.0;
    format      ascii;
    class       labelListList;
    location    "constant/vegetation";
    object      globalFaceFaces;
}
// * * * * * * * * * * * * * * * * * * * * * * * * * * * * * * * * * * * * * //


774
(

1409
(
0
1
2
3
4
5
6
7
8
9
10
11
12
13
14
15
16
17
18
19
20
21
22
23
24
25
26
27
28
29
30
31
32
33
34
35
36
37
38
39
40
41
42
43
44
45
46
47
48
49
50
51
52
53
54
55
56
57
58
59
60
61
62
63
64
65
66
67
68
69
70
71
72
73
74
75
76
77
78
79
80
81
82
83
84
85
86
87
88
89
90
92
93
96
97
98
99
100
103
104
105
106
107
108
109
110
111
112
113
114
115
116
117
120
121
122
123
124
125
126
127
128
129
130
131
137
140
143
146
149
151
160
161
162
178
179
180
181
186
187
188
189
190
191
195
196
197
198
199
203
204
208
212
219
220
224
256
257
258
259
260
261
262
263
264
265
266
267
268
269
270
271
272
273
274
275
276
277
278
279
280
281
282
283
284
285
286
287
288
289
290
291
292
293
294
295
296
297
298
299
300
301
302
303
304
305
306
307
308
309
310
311
312
313
314
315
316
317
318
319
320
321
322
323
324
325
326
327
328
329
330
331
332
333
334
335
336
337
338
339
340
341
342
343
344
345
346
347
348
349
350
351
352
353
354
355
356
357
358
359
360
361
362
363
364
365
366
367
368
369
370
371
372
373
374
375
376
377
378
379
380
381
382
383
384
385
386
387
388
389
390
391
392
393
394
395
396
397
398
399
400
401
402
403
404
405
406
407
408
409
410
411
412
413
414
415
416
417
418
419
420
421
422
423
424
425
426
450
451
452
453
454
455
456
457
458
459
460
461
462
463
464
465
466
467
468
469
470
471
473
474
475
476
477
478
479
480
481
482
483
484
485
486
487
490
492
493
499
501
504
507
508
509
510
514
515
516
517
518
522
526
527
531
540
543
546
548
561
565
571
572
573
580
581
582
583
584
585
586
587
588
589
590
591
592
593
594
595
596
609
612
615
618
619
620
621
622
627
630
637
641
646
649
651
655
659
660
662
664
665
666
667
669
670
671
672
673
675
676
677
678
679
680
681
682
683
684
685
686
687
688
689
690
691
692
693
694
695
696
697
698
699
700
701
702
703
704
705
706
707
708
709
710
711
712
713
714
715
716
717
718
719
720
721
722
723
724
725
726
727
728
729
730
731
732
733
734
735
736
737
738
739
740
741
742
743
744
745
746
747
748
749
750
751
752
753
754
755
756
757
758
759
760
761
762
763
764
765
766
767
768
769
770
771
772
773
774
775
776
777
778
779
780
781
782
783
784
785
786
787
788
789
790
791
792
793
794
795
796
797
798
799
800
801
802
803
804
805
806
807
808
809
810
811
812
813
814
815
816
817
818
819
820
821
822
823
824
825
826
827
828
829
830
831
832
833
834
835
836
837
838
839
840
841
842
843
844
845
846
847
848
849
850
851
852
853
854
855
856
857
858
859
860
861
862
863
864
865
866
867
868
869
870
871
872
873
874
875
876
877
878
879
880
881
882
883
884
885
886
887
888
889
890
891
892
893
894
895
896
897
898
899
900
901
902
903
904
905
906
1004
1005
1012
1015
1025
1028
1029
1051
1052
1054
1056
1058
1062
1064
1066
1067
1068
1070
1076
1077
1080
1084
1085
1086
1087
1090
1092
1096
1098
1099
1100
1101
1103
1107
1108
1110
1113
1116
1118
1120
1123
1124
1125
1128
1130
1132
1134
1136
1137
1138
1139
1146
1147
1148
1149
1150
1151
1152
1153
1154
1155
1156
1157
1158
1159
1160
1161
1162
1163
1164
1165
1166
1167
1168
1169
1170
1171
1172
1173
1174
1175
1176
1177
1178
1179
1180
1181
1182
1183
1184
1185
1186
1187
1188
1189
1190
1191
1192
1193
1194
1195
1196
1197
1198
1199
1200
1201
1202
1203
1204
1205
1206
1207
1767
1768
1770
1771
1774
1775
1776
1777
1778
1780
1783
1789
1795
1796
1797
1798
1799
1800
1801
1802
1803
1804
1805
1806
1807
1808
1809
1810
1811
1812
1813
1814
1815
1816
1817
1818
1819
1820
1821
1822
1823
1824
1825
1826
1827
1828
1829
1830
1831
1832
1833
1834
1835
1836
1837
1838
1839
1840
1841
1842
1843
1844
1845
1846
1847
1848
1849
1850
1851
1852
1853
1854
1855
1856
1857
1858
1859
1860
1861
1863
1864
1865
1866
1868
1870
1871
1872
1873
1874
1875
1876
1877
1878
1879
1880
1881
1882
1883
1884
1885
1886
1887
1888
1889
1890
1893
1894
1896
1897
1898
1899
1900
1901
1902
1903
1904
1905
1906
1907
1908
1909
1912
1913
1918
1919
1920
1921
1922
1923
1924
1925
1926
1927
1928
1934
1935
1936
1937
1938
1939
1940
1941
1946
1947
1948
1949
1950
1951
1952
1957
1960
1961
1962
1963
1964
1968
1971
1974
1975
1976
1977
1978
1979
1996
1999
2006
2007
2008
2009
2010
2021
2032
2033
2034
2035
2036
2037
2038
2045
2052
2053
2054
2056
2061
2062
2063
2064
2065
2066
2067
2068
2069
2070
2071
2072
2073
2074
2075
2076
2077
2078
2079
2080
2081
2094
2095
2096
2097
2098
2099
2128
2129
2130
2134
2135
2136
2137
2138
2139
2140
2141
2142
2143
2144
2145
2146
2149
2150
2151
2152
2154
2155
2156
2157
2158
2159
2160
2161
2162
2163
2164
2165
2166
2167
2168
2169
2170
2171
2172
2173
2174
2175
2176
2177
2178
2179
2191
2192
2193
2194
2203
2204
2205
2206
2207
2208
2209
2210
2211
2230
2232
2237
2240
2250
2251
2252
2253
2254
2255
2260
2264
2269
2270
2274
2284
2285
2302
2304
2335
2336
2337
2338
2339
2340
2341
2342
2343
2344
2345
2346
2347
2354
2355
2356
2363
2364
2365
2366
2367
2368
2369
2370
2371
2372
2373
2380
2387
2388
2389
2390
2629
2630
2631
2632
2633
2634
2635
2636
2637
2638
2639
2640
2641
2642
2643
2644
2645
2646
2647
2648
2649
2650
2651
2652
2653
2654
2655
2656
2657
2658
2659
2660
2661
2662
2663
2664
2665
2666
2667
2668
2669
3510
3511
3512
3513
3514
3515
3516
3517
3518
3519
3520
3521
3522
3523
3524
3539
3548
3549
3550
3551
3552
3553
3554
3555
3556
3557
3558
3559
3560
3561
3562
3563
3564
3565
3566
3567
3568
3569
3570
3572
3574
3575
3576
3577
3578
3579
3583
3589
3590
3591
3592
3593
3594
3595
3596
3597
3598
3599
3600
3601
3602
3603
3604
3605
3606
3607
3608
3609
3610
3611
3612
3613
3614
3615
3616
3617
3618
3619
3620
3621
3622
3623
3624
3625
3626
3627
4304
4305
4306
4307
4308
4309
4310
4311
4312
4313
4314
4315
4316
4317
4318
4319
4320
4321
4322
4323
4324
4325
4326
4327
4328
4329
4330
4331
4332
4333
4334
4335
4336
4337
4338
4339
4340
4341
4342
4343
4344
4345
4346
4347
4348
4349
4350
4351
4352
4353
4354
4355
4356
4357
4358
4359
4360
4361
4362
4363
4364
4365
4366
4367
4368
4369
4370
4371
4372
4373
4374
4375
4376
4377
4378
4379
4380
4921
4922
4925
4929
4930
4933
4934
4937
4939
4940
4941
4944
4946
4950
4951
4952
4953
4954
4958
4961
4980
5743
5744
5745
5746
5747
5748
5749
5750
5751
5752
5753
5754
5755
5756
5757
5758
5759
5760
5761
5762
5763
5766
5767
5768
5769
5770
5771
5772
5773
5774
5801
5804
5852
5853
5854
5855
5856
6083
6084
6085
6087
6092
6093
6095
6096
6103
6160
6161
6162
6200
6261
6262
6287
6292
6293
6294
7051
7052
7053
7054
7055
7056
7057
7058
7059
7060
7061
7062
7064
7065
7066
7067
7068
7069
7070
7071
7072
7073
7074
7075
7076
7081
)


1409
(
0
1
2
3
4
5
6
7
8
9
10
11
12
13
14
15
16
17
18
19
20
21
22
23
24
25
26
27
28
29
30
31
32
33
34
35
36
37
38
39
40
41
42
43
44
45
46
47
48
49
50
51
52
53
54
55
56
57
58
59
60
61
62
63
64
65
66
67
68
69
70
71
72
73
74
75
76
77
78
79
80
81
82
83
84
85
86
87
88
89
90
92
93
96
97
98
99
100
103
104
105
106
107
108
109
110
111
112
113
114
115
116
117
120
121
122
123
124
125
126
127
128
129
130
131
137
140
143
146
149
151
160
161
162
178
179
180
181
186
187
188
189
190
191
195
196
197
198
199
203
204
208
212
219
220
224
256
257
258
259
260
261
262
263
264
265
266
267
268
269
270
271
272
273
274
275
276
277
278
279
280
281
282
283
284
285
286
287
288
289
290
291
292
293
294
295
296
297
298
299
300
301
302
303
304
305
306
307
308
309
310
311
312
313
314
315
316
317
318
319
320
321
322
323
324
325
326
327
328
329
330
331
332
333
334
335
336
337
338
339
340
341
342
343
344
345
346
347
348
349
350
351
352
353
354
355
356
357
358
359
360
361
362
363
364
365
366
367
368
369
370
371
372
373
374
375
376
377
378
379
380
381
382
383
384
385
386
387
388
389
390
391
392
393
394
395
396
397
398
399
400
401
402
403
404
405
406
407
408
409
410
411
412
413
414
415
416
417
418
419
420
421
422
423
424
425
426
450
451
452
453
454
455
456
457
458
459
460
461
462
463
464
465
466
467
468
469
470
471
473
474
475
476
477
478
479
480
481
482
483
484
485
486
487
490
492
493
499
501
504
507
508
509
510
514
515
516
517
518
522
526
527
531
540
543
546
548
561
565
571
572
573
580
581
582
583
584
585
586
587
588
589
590
591
592
593
594
595
596
609
612
615
618
619
620
621
622
627
630
637
641
646
649
651
655
659
660
662
664
665
666
667
669
670
671
672
673
675
676
677
678
679
680
681
682
683
684
685
686
687
688
689
690
691
692
693
694
695
696
697
698
699
700
701
702
703
704
705
706
707
708
709
710
711
712
713
714
715
716
717
718
719
720
721
722
723
724
725
726
727
728
729
730
731
732
733
734
735
736
737
738
739
740
741
742
743
744
745
746
747
748
749
750
751
752
753
754
755
756
757
758
759
760
761
762
763
764
765
766
767
768
769
770
771
772
773
774
775
776
777
778
779
780
781
782
783
784
785
786
787
788
789
790
791
792
793
794
795
796
797
798
799
800
801
802
803
804
805
806
807
808
809
810
811
812
813
814
815
816
817
818
819
820
821
822
823
824
825
826
827
828
829
830
831
832
833
834
835
836
837
838
839
840
841
842
843
844
845
846
847
848
849
850
851
852
853
854
855
856
857
858
859
860
861
862
863
864
865
866
867
868
869
870
871
872
873
874
875
876
877
878
879
880
881
882
883
884
885
886
887
888
889
890
891
892
893
894
895
896
897
898
899
900
901
902
903
904
905
906
1004
1005
1012
1015
1025
1028
1029
1051
1052
1054
1056
1058
1062
1064
1066
1067
1068
1070
1076
1077
1080
1084
1085
1086
1087
1090
1092
1096
1098
1099
1100
1101
1103
1107
1108
1110
1113
1116
1118
1120
1123
1124
1125
1128
1130
1132
1134
1136
1137
1138
1139
1146
1147
1148
1149
1150
1151
1152
1153
1154
1155
1156
1157
1158
1159
1160
1161
1162
1163
1164
1165
1166
1167
1168
1169
1170
1171
1172
1173
1174
1175
1176
1177
1178
1179
1180
1181
1182
1183
1184
1185
1186
1187
1188
1189
1190
1191
1192
1193
1194
1195
1196
1197
1198
1199
1200
1201
1202
1203
1204
1205
1206
1207
1767
1768
1770
1771
1774
1775
1776
1777
1778
1780
1783
1789
1795
1796
1797
1798
1799
1800
1801
1802
1803
1804
1805
1806
1807
1808
1809
1810
1811
1812
1813
1814
1815
1816
1817
1818
1819
1820
1821
1822
1823
1824
1825
1826
1827
1828
1829
1830
1831
1832
1833
1834
1835
1836
1837
1838
1839
1840
1841
1842
1843
1844
1845
1846
1847
1848
1849
1850
1851
1852
1853
1854
1855
1856
1857
1858
1859
1860
1861
1863
1864
1865
1866
1868
1870
1871
1872
1873
1874
1875
1876
1877
1878
1879
1880
1881
1882
1883
1884
1885
1886
1887
1888
1889
1890
1893
1894
1896
1897
1898
1899
1900
1901
1902
1903
1904
1905
1906
1907
1908
1909
1912
1913
1918
1919
1920
1921
1922
1923
1924
1925
1926
1927
1928
1934
1935
1936
1937
1938
1939
1940
1941
1946
1947
1948
1949
1950
1951
1952
1957
1960
1961
1962
1963
1964
1968
1971
1974
1975
1976
1977
1978
1979
1996
1999
2006
2007
2008
2009
2010
2021
2032
2033
2034
2035
2036
2037
2038
2045
2052
2053
2054
2056
2061
2062
2063
2064
2065
2066
2067
2068
2069
2070
2071
2072
2073
2074
2075
2076
2077
2078
2079
2080
2081
2094
2095
2096
2097
2098
2099
2128
2129
2130
2134
2135
2136
2137
2138
2139
2140
2141
2142
2143
2144
2145
2146
2149
2150
2151
2152
2154
2155
2156
2157
2158
2159
2160
2161
2162
2163
2164
2165
2166
2167
2168
2169
2170
2171
2172
2173
2174
2175
2176
2177
2178
2179
2191
2192
2193
2194
2203
2204
2205
2206
2207
2208
2209
2210
2211
2230
2232
2237
2240
2250
2251
2252
2253
2254
2255
2260
2264
2269
2270
2274
2284
2285
2302
2304
2335
2336
2337
2338
2339
2340
2341
2342
2343
2344
2345
2346
2347
2354
2355
2356
2363
2364
2365
2366
2367
2368
2369
2370
2371
2372
2373
2380
2387
2388
2389
2390
2629
2630
2631
2632
2633
2634
2635
2636
2637
2638
2639
2640
2641
2642
2643
2644
2645
2646
2647
2648
2649
2650
2651
2652
2653
2654
2655
2656
2657
2658
2659
2660
2661
2662
2663
2664
2665
2666
2667
2668
2669
3510
3511
3512
3513
3514
3515
3516
3517
3518
3519
3520
3521
3522
3523
3524
3539
3548
3549
3550
3551
3552
3553
3554
3555
3556
3557
3558
3559
3560
3561
3562
3563
3564
3565
3566
3567
3568
3569
3570
3572
3574
3575
3576
3577
3578
3579
3583
3589
3590
3591
3592
3593
3594
3595
3596
3597
3598
3599
3600
3601
3602
3603
3604
3605
3606
3607
3608
3609
3610
3611
3612
3613
3614
3615
3616
3617
3618
3619
3620
3621
3622
3623
3624
3625
3626
3627
4304
4305
4306
4307
4308
4309
4310
4311
4312
4313
4314
4315
4316
4317
4318
4319
4320
4321
4322
4323
4324
4325
4326
4327
4328
4329
4330
4331
4332
4333
4334
4335
4336
4337
4338
4339
4340
4341
4342
4343
4344
4345
4346
4347
4348
4349
4350
4351
4352
4353
4354
4355
4356
4357
4358
4359
4360
4361
4362
4363
4364
4365
4366
4367
4368
4369
4370
4371
4372
4373
4374
4375
4376
4377
4378
4379
4380
4921
4922
4925
4929
4930
4933
4934
4937
4939
4940
4941
4944
4946
4950
4951
4952
4953
4954
4958
4961
4980
5743
5744
5745
5746
5747
5748
5749
5750
5751
5752
5753
5754
5755
5756
5757
5758
5759
5760
5761
5762
5763
5766
5767
5768
5769
5770
5771
5772
5773
5774
5801
5804
5852
5853
5854
5855
5856
6083
6084
6085
6087
6092
6093
6095
6096
6103
6160
6161
6162
6200
6261
6262
6287
6292
6293
6294
7051
7052
7053
7054
7055
7056
7057
7058
7059
7060
7061
7062
7064
7065
7066
7067
7068
7069
7070
7071
7072
7073
7074
7075
7076
7081
)


1408
(
0
1
2
3
4
5
6
7
8
9
10
11
12
13
14
15
16
17
18
19
20
21
22
23
24
25
26
27
28
29
30
31
32
33
34
35
36
37
38
39
40
41
42
43
44
45
46
47
48
49
50
51
52
53
54
55
56
57
58
59
60
61
62
63
64
65
66
67
68
69
70
71
72
73
74
75
76
77
78
79
80
81
82
83
84
85
86
87
88
89
90
92
93
96
97
98
99
100
103
104
105
106
107
108
109
110
111
112
113
114
115
116
117
120
121
122
123
124
125
126
127
128
129
130
131
137
140
143
146
149
151
160
161
162
178
179
180
181
186
187
188
189
190
191
195
196
197
198
199
203
204
208
212
219
220
224
256
257
258
259
260
261
262
263
264
265
266
267
268
269
270
271
272
273
274
275
276
277
278
279
280
281
282
283
284
285
286
287
288
289
290
291
292
293
294
295
296
297
298
299
300
301
302
303
304
305
306
307
308
309
310
311
312
313
314
315
316
317
318
319
320
321
322
323
324
325
326
327
328
329
330
331
332
333
334
335
336
337
338
339
340
341
342
343
344
345
346
347
348
349
350
351
352
353
354
355
356
357
358
359
360
361
362
363
364
365
366
367
368
369
370
371
372
373
374
375
376
377
378
379
380
381
382
383
384
385
386
387
388
389
390
391
392
393
394
395
396
397
398
399
400
401
402
403
404
405
406
407
408
409
410
411
412
413
414
415
416
417
418
419
420
421
422
423
424
425
426
450
451
452
453
454
455
456
457
458
459
460
461
462
463
464
465
466
467
468
469
470
471
473
474
475
476
477
478
479
480
481
482
483
484
485
486
487
490
492
493
499
501
504
507
508
509
510
514
515
516
517
518
522
526
527
531
540
543
546
548
561
565
571
572
573
580
581
582
583
584
585
586
587
588
589
590
591
592
593
594
595
596
609
612
615
618
619
620
621
622
627
630
637
641
646
649
651
655
659
660
662
664
665
666
667
669
670
671
672
673
675
676
677
678
679
680
681
682
683
684
685
686
687
688
689
690
691
692
693
694
695
696
697
698
699
700
701
702
703
704
705
706
707
708
709
710
711
712
713
714
715
716
717
718
719
720
721
722
723
724
725
726
727
728
729
730
731
732
733
734
735
736
737
738
739
740
741
742
743
744
745
746
747
748
749
750
751
752
753
754
755
756
757
758
759
760
761
762
763
764
765
766
767
768
769
770
771
772
773
774
775
776
777
778
779
780
781
782
783
784
785
786
787
788
789
790
791
792
793
794
795
796
797
798
799
800
801
802
803
804
805
806
807
808
809
810
811
812
813
814
815
816
817
818
819
820
821
822
823
824
825
826
827
828
829
830
831
832
833
834
835
836
837
838
839
840
841
842
843
844
845
846
847
848
849
850
851
852
853
854
855
856
857
858
859
860
861
862
863
864
865
866
867
868
869
870
871
872
873
874
875
876
877
878
879
880
881
882
883
884
885
886
887
888
889
890
891
892
893
894
895
896
897
898
899
900
901
902
903
904
905
906
1004
1005
1012
1015
1025
1028
1029
1051
1052
1054
1056
1058
1062
1064
1066
1067
1068
1070
1076
1077
1080
1084
1085
1086
1087
1090
1092
1096
1098
1099
1100
1101
1103
1107
1108
1110
1113
1116
1118
1120
1123
1124
1125
1128
1130
1132
1134
1136
1137
1138
1139
1146
1147
1148
1149
1150
1151
1152
1153
1154
1155
1156
1157
1158
1159
1160
1161
1162
1163
1164
1165
1166
1167
1168
1169
1170
1171
1172
1173
1174
1175
1176
1177
1178
1179
1180
1181
1182
1183
1184
1185
1186
1187
1188
1189
1190
1191
1192
1193
1194
1195
1196
1197
1198
1199
1200
1201
1202
1203
1204
1205
1206
1207
1767
1768
1770
1771
1774
1775
1776
1777
1778
1780
1783
1789
1795
1796
1797
1798
1799
1800
1801
1802
1803
1804
1805
1806
1807
1808
1809
1810
1811
1812
1813
1814
1815
1816
1817
1818
1819
1820
1821
1822
1823
1824
1825
1826
1827
1828
1829
1830
1831
1832
1833
1834
1835
1836
1837
1838
1839
1840
1841
1842
1843
1844
1845
1846
1847
1848
1849
1850
1851
1852
1853
1854
1855
1856
1857
1858
1859
1860
1861
1863
1864
1865
1866
1868
1870
1871
1872
1873
1874
1875
1876
1877
1878
1879
1880
1881
1882
1883
1884
1885
1886
1887
1888
1889
1890
1893
1894
1896
1897
1898
1899
1900
1901
1902
1903
1904
1905
1906
1907
1908
1909
1912
1913
1918
1919
1920
1921
1922
1923
1924
1925
1926
1927
1928
1934
1935
1936
1937
1938
1939
1940
1941
1946
1947
1948
1949
1950
1951
1952
1957
1960
1961
1962
1963
1964
1968
1971
1974
1975
1976
1977
1978
1979
1996
1999
2006
2007
2008
2009
2010
2021
2032
2033
2034
2035
2036
2037
2038
2045
2052
2053
2054
2056
2061
2062
2063
2064
2065
2066
2067
2068
2069
2070
2071
2072
2073
2074
2075
2076
2077
2078
2079
2080
2081
2094
2095
2096
2097
2098
2099
2128
2129
2130
2134
2135
2136
2137
2138
2139
2140
2141
2142
2143
2144
2145
2146
2149
2150
2151
2152
2154
2155
2156
2157
2158
2159
2160
2161
2162
2163
2164
2165
2166
2167
2168
2169
2170
2171
2172
2173
2174
2175
2176
2177
2178
2179
2191
2192
2193
2194
2203
2204
2205
2206
2207
2208
2209
2210
2211
2230
2232
2237
2240
2250
2251
2252
2253
2254
2255
2260
2264
2269
2270
2274
2284
2285
2302
2304
2335
2336
2337
2338
2339
2340
2341
2342
2343
2344
2345
2346
2347
2354
2355
2356
2363
2364
2365
2366
2367
2368
2369
2370
2371
2372
2373
2380
2387
2388
2389
2390
2629
2630
2631
2632
2633
2634
2635
2636
2637
2638
2639
2640
2641
2642
2643
2644
2645
2646
2647
2648
2649
2650
2651
2652
2653
2654
2655
2656
2657
2658
2659
2660
2661
2662
2663
2664
2665
2666
2667
2668
2669
3510
3511
3512
3513
3514
3515
3516
3517
3518
3519
3520
3521
3522
3523
3524
3539
3548
3549
3550
3551
3552
3553
3554
3555
3556
3557
3558
3559
3560
3561
3562
3563
3564
3565
3566
3567
3568
3569
3570
3572
3574
3575
3576
3577
3578
3579
3583
3589
3590
3591
3592
3593
3594
3595
3596
3597
3598
3599
3600
3601
3602
3603
3604
3605
3606
3607
3608
3609
3610
3611
3612
3613
3614
3615
3616
3617
3618
3619
3620
3621
3622
3623
3624
3625
3626
3627
4304
4305
4306
4307
4308
4309
4310
4311
4312
4313
4314
4315
4316
4317
4318
4319
4320
4321
4322
4323
4324
4325
4326
4327
4328
4329
4330
4331
4332
4333
4334
4335
4336
4337
4338
4339
4340
4341
4342
4343
4344
4345
4346
4347
4348
4349
4350
4351
4352
4353
4354
4355
4356
4357
4358
4359
4360
4361
4362
4363
4364
4365
4366
4367
4368
4369
4370
4371
4372
4373
4374
4375
4376
4377
4378
4379
4380
4919
4921
4922
4925
4929
4930
4934
4937
4939
4940
4941
4944
4946
4951
4952
4953
4954
4958
4961
4980
5743
5744
5745
5746
5747
5748
5749
5750
5751
5752
5753
5754
5755
5756
5757
5758
5759
5760
5761
5762
5763
5766
5767
5768
5769
5770
5771
5772
5773
5774
5801
5804
5852
5853
5854
5855
5856
6083
6084
6085
6087
6092
6093
6095
6096
6103
6160
6161
6162
6200
6261
6262
6287
6292
6293
6294
7051
7052
7053
7054
7055
7056
7057
7058
7059
7060
7061
7062
7064
7065
7066
7067
7068
7069
7070
7071
7072
7073
7074
7075
7076
7081
)


1407
(
0
1
2
3
4
5
6
7
8
9
10
11
12
13
14
15
16
17
18
19
20
21
22
23
24
25
26
27
28
29
30
31
32
33
34
35
36
37
38
39
40
41
42
43
44
45
46
47
48
49
50
51
52
53
54
55
56
57
58
59
60
61
62
63
64
65
66
67
68
69
70
71
72
73
74
75
76
77
78
79
80
81
82
83
84
85
86
87
88
89
90
92
93
96
97
98
99
100
103
104
105
106
107
108
109
110
111
112
113
114
115
116
117
120
121
122
123
124
125
126
127
128
129
130
131
137
140
143
146
149
151
160
161
162
178
179
180
181
186
187
188
189
190
191
195
196
197
198
199
203
204
208
212
219
220
224
256
257
258
259
260
261
262
263
264
265
266
267
268
269
270
271
272
273
274
275
276
277
278
279
280
281
282
283
284
285
286
287
288
289
290
291
292
293
294
295
296
297
298
299
300
301
302
303
304
305
306
307
308
309
310
311
312
313
314
315
316
317
318
319
320
321
322
323
324
325
326
327
328
329
330
331
332
333
334
335
336
337
338
339
340
341
342
343
344
345
346
347
348
349
350
351
352
353
354
355
356
357
358
359
360
361
362
363
364
365
366
367
368
369
370
371
372
373
374
375
376
377
378
379
380
381
382
383
384
385
386
387
388
389
390
391
392
393
394
395
396
397
398
399
400
401
402
403
404
405
406
407
408
409
410
411
412
413
414
415
416
417
418
419
420
421
422
423
424
425
426
450
451
452
453
454
455
456
457
458
459
460
461
462
463
464
465
466
467
468
469
470
471
473
474
475
476
477
478
479
480
481
482
483
484
485
486
487
490
492
493
499
501
504
507
508
509
510
514
515
516
517
518
522
526
527
531
540
543
546
548
561
565
571
572
573
580
581
582
583
584
585
586
587
588
589
590
591
592
593
594
595
596
609
612
615
618
619
620
621
622
627
630
637
641
646
649
651
655
659
660
662
664
665
666
667
669
670
671
672
673
675
676
677
678
679
680
681
682
683
684
685
686
687
688
689
690
691
692
693
694
695
696
697
698
699
700
701
702
703
704
705
706
707
708
709
710
711
712
713
714
715
716
717
718
719
720
721
722
723
724
725
726
727
728
729
730
731
732
733
734
735
736
737
738
739
740
741
742
743
744
745
746
747
748
749
750
751
752
753
754
755
756
757
758
759
760
761
762
763
764
765
766
767
768
769
770
771
772
773
774
775
776
777
778
779
780
781
782
783
784
785
786
787
788
789
790
791
792
793
794
795
796
797
798
799
800
801
802
803
804
805
806
807
808
809
810
811
812
813
814
815
816
817
818
819
820
821
822
823
824
825
826
827
828
829
830
831
832
833
834
835
836
837
838
839
840
841
842
843
844
845
846
847
848
849
850
851
852
853
854
855
856
857
858
859
860
861
862
863
864
865
866
867
868
869
870
871
872
873
874
875
876
877
878
879
880
881
882
883
884
885
886
887
888
889
890
891
892
893
894
895
896
897
898
899
900
901
902
903
904
905
906
1004
1005
1012
1015
1025
1028
1029
1051
1052
1054
1056
1058
1062
1064
1066
1067
1068
1070
1076
1077
1080
1084
1085
1086
1087
1090
1092
1096
1098
1099
1100
1101
1103
1107
1108
1110
1113
1116
1118
1120
1123
1124
1125
1128
1130
1132
1134
1136
1137
1138
1139
1146
1147
1148
1149
1150
1151
1152
1153
1154
1155
1156
1157
1158
1159
1160
1161
1162
1163
1164
1165
1166
1167
1168
1169
1170
1171
1172
1173
1174
1175
1176
1177
1178
1179
1180
1181
1182
1183
1184
1185
1186
1187
1188
1189
1190
1191
1192
1193
1194
1195
1196
1197
1198
1199
1200
1201
1202
1203
1204
1205
1206
1207
1767
1768
1770
1771
1774
1775
1776
1777
1778
1780
1783
1789
1795
1796
1797
1798
1799
1800
1801
1802
1803
1804
1805
1806
1807
1808
1809
1810
1811
1812
1813
1814
1815
1816
1817
1818
1819
1820
1821
1822
1823
1824
1825
1826
1827
1828
1829
1830
1831
1832
1833
1834
1835
1836
1837
1838
1839
1840
1841
1842
1843
1844
1845
1846
1847
1848
1849
1850
1851
1852
1853
1854
1855
1856
1857
1858
1859
1860
1861
1863
1864
1865
1866
1868
1870
1871
1872
1873
1874
1875
1876
1877
1878
1879
1880
1881
1882
1883
1884
1885
1886
1887
1888
1889
1890
1893
1894
1896
1897
1898
1899
1900
1901
1902
1903
1904
1905
1906
1907
1908
1909
1912
1913
1918
1919
1920
1921
1922
1923
1924
1925
1926
1927
1928
1934
1935
1936
1937
1938
1939
1940
1941
1946
1947
1948
1949
1950
1951
1952
1957
1960
1961
1962
1963
1964
1968
1971
1974
1975
1976
1977
1978
1979
1996
1999
2006
2007
2008
2009
2010
2021
2032
2033
2034
2035
2036
2037
2038
2045
2052
2053
2054
2056
2061
2062
2063
2064
2065
2066
2067
2068
2069
2070
2071
2072
2073
2074
2075
2076
2077
2078
2079
2080
2081
2094
2095
2096
2097
2098
2099
2128
2129
2130
2134
2135
2136
2137
2138
2139
2140
2141
2142
2143
2144
2145
2146
2149
2150
2151
2152
2154
2155
2156
2157
2158
2159
2160
2161
2162
2163
2164
2165
2166
2167
2168
2169
2170
2171
2172
2173
2174
2175
2176
2177
2178
2179
2191
2192
2193
2194
2203
2204
2205
2206
2207
2208
2209
2210
2211
2230
2232
2237
2240
2250
2251
2252
2253
2254
2255
2260
2264
2269
2270
2274
2284
2285
2302
2304
2335
2336
2337
2338
2339
2340
2341
2342
2343
2344
2345
2346
2347
2354
2355
2356
2363
2364
2365
2366
2367
2368
2369
2370
2371
2372
2373
2380
2387
2388
2389
2390
2629
2630
2631
2632
2633
2634
2635
2636
2637
2638
2639
2640
2641
2642
2643
2644
2645
2646
2647
2648
2649
2650
2651
2652
2653
2654
2655
2656
2657
2658
2659
2660
2661
2662
2663
2664
2665
2666
2667
2668
2669
3510
3511
3512
3513
3514
3515
3516
3517
3518
3519
3520
3521
3522
3523
3524
3539
3548
3549
3550
3551
3552
3553
3554
3555
3556
3557
3558
3559
3560
3561
3562
3563
3564
3565
3566
3567
3568
3569
3570
3572
3574
3575
3576
3577
3578
3579
3583
3589
3590
3591
3592
3593
3594
3595
3596
3597
3598
3599
3600
3601
3602
3603
3604
3605
3606
3607
3608
3609
3610
3611
3612
3613
3614
3615
3616
3617
3618
3619
3620
3621
3622
3623
3624
3625
3626
3627
4304
4305
4306
4307
4308
4309
4310
4311
4312
4313
4314
4315
4316
4317
4318
4319
4320
4321
4322
4323
4324
4325
4326
4327
4328
4329
4330
4331
4332
4333
4334
4335
4336
4337
4338
4339
4340
4341
4342
4343
4344
4345
4346
4347
4348
4349
4350
4351
4352
4353
4354
4355
4356
4357
4358
4359
4360
4361
4362
4363
4364
4365
4366
4367
4368
4369
4370
4371
4372
4373
4374
4375
4376
4377
4378
4379
4380
4921
4922
4925
4929
4930
4934
4937
4939
4940
4941
4944
4946
4951
4952
4953
4954
4958
4961
4980
5743
5744
5745
5746
5747
5748
5749
5750
5751
5752
5753
5754
5755
5756
5757
5758
5759
5760
5761
5762
5763
5766
5767
5768
5769
5770
5771
5772
5773
5774
5801
5804
5852
5853
5854
5855
5856
6083
6084
6085
6087
6092
6093
6095
6096
6103
6160
6161
6162
6200
6261
6262
6287
6292
6293
6294
7051
7052
7053
7054
7055
7056
7057
7058
7059
7060
7061
7062
7064
7065
7066
7067
7068
7069
7070
7071
7072
7073
7074
7075
7076
7081
)


1410
(
0
1
2
3
4
5
6
7
8
9
10
11
12
13
14
15
16
17
18
19
20
21
22
23
24
25
26
27
28
29
30
31
32
33
34
35
36
37
38
39
40
41
42
43
44
45
46
47
48
49
50
51
52
53
54
55
56
57
58
59
60
61
62
63
64
65
66
67
68
69
70
71
72
73
74
75
76
77
78
79
80
81
82
83
84
85
86
87
88
89
90
92
93
96
97
98
99
100
103
104
105
106
107
108
109
110
111
112
113
114
115
116
117
120
121
122
123
124
125
126
127
128
129
130
131
137
140
143
146
149
151
160
161
162
178
179
180
181
186
187
188
189
190
191
195
196
197
198
199
203
204
208
212
219
220
224
256
257
258
259
260
261
262
263
264
265
266
267
268
269
270
271
272
273
274
275
276
277
278
279
280
281
282
283
284
285
286
287
288
289
290
291
292
293
294
295
296
297
298
299
300
301
302
303
304
305
306
307
308
309
310
311
312
313
314
315
316
317
318
319
320
321
322
323
324
325
326
327
328
329
330
331
332
333
334
335
336
337
338
339
340
341
342
343
344
345
346
347
348
349
350
351
352
353
354
355
356
357
358
359
360
361
362
363
364
365
366
367
368
369
370
371
372
373
374
375
376
377
378
379
380
381
382
383
384
385
386
387
388
389
390
391
392
393
394
395
396
397
398
399
400
401
402
403
404
405
406
407
408
409
410
411
412
413
414
415
416
417
418
419
420
421
422
423
424
425
426
450
451
452
453
454
455
456
457
458
459
460
461
462
463
464
465
466
467
468
469
470
471
473
474
475
476
477
478
479
480
481
482
483
484
485
486
487
490
492
493
499
501
504
507
508
509
510
514
515
516
517
518
522
526
527
531
540
543
546
548
561
565
571
572
573
580
581
582
583
584
585
586
587
588
589
590
591
592
593
594
595
596
609
612
615
618
619
620
621
622
627
630
637
641
646
649
651
655
659
660
662
664
665
666
667
669
670
671
672
673
675
676
677
678
679
680
681
682
683
684
685
686
687
688
689
690
691
692
693
694
695
696
697
698
699
700
701
702
703
704
705
706
707
708
709
710
711
712
713
714
715
716
717
718
719
720
721
722
723
724
725
726
727
728
729
730
731
732
733
734
735
736
737
738
739
740
741
742
743
744
745
746
747
748
749
750
751
752
753
754
755
756
757
758
759
760
761
762
763
764
765
766
767
768
769
770
771
772
773
774
775
776
777
778
779
780
781
782
783
784
785
786
787
788
789
790
791
792
793
794
795
796
797
798
799
800
801
802
803
804
805
806
807
808
809
810
811
812
813
814
815
816
817
818
819
820
821
822
823
824
825
826
827
828
829
830
831
832
833
834
835
836
837
838
839
840
841
842
843
844
845
846
847
848
849
850
851
852
853
854
855
856
857
858
859
860
861
862
863
864
865
866
867
868
869
870
871
872
873
874
875
876
877
878
879
880
881
882
883
884
885
886
887
888
889
890
891
892
893
894
895
896
897
898
899
900
901
902
903
904
905
906
1004
1005
1012
1015
1025
1028
1029
1051
1052
1054
1056
1058
1062
1064
1066
1067
1068
1070
1076
1077
1080
1084
1085
1086
1087
1090
1092
1096
1098
1099
1100
1101
1103
1107
1108
1110
1113
1116
1118
1120
1123
1124
1125
1128
1130
1132
1134
1136
1137
1138
1139
1146
1147
1148
1149
1150
1151
1152
1153
1154
1155
1156
1157
1158
1159
1160
1161
1162
1163
1164
1165
1166
1167
1168
1169
1170
1171
1172
1173
1174
1175
1176
1177
1178
1179
1180
1181
1182
1183
1184
1185
1186
1187
1188
1189
1190
1191
1192
1193
1194
1195
1196
1197
1198
1199
1200
1201
1202
1203
1204
1205
1206
1207
1767
1768
1770
1771
1774
1775
1776
1777
1778
1780
1783
1789
1795
1796
1797
1798
1799
1800
1801
1802
1803
1804
1805
1806
1807
1808
1809
1810
1811
1812
1813
1814
1815
1816
1817
1818
1819
1820
1821
1822
1823
1824
1825
1826
1827
1828
1829
1830
1831
1832
1833
1834
1835
1836
1837
1838
1839
1840
1841
1842
1843
1844
1845
1846
1847
1848
1849
1850
1851
1852
1853
1854
1855
1856
1857
1858
1859
1860
1861
1863
1864
1865
1866
1868
1870
1871
1872
1873
1874
1875
1876
1877
1878
1879
1880
1881
1882
1883
1884
1885
1886
1887
1888
1889
1890
1893
1894
1896
1897
1898
1899
1900
1901
1902
1903
1904
1905
1906
1907
1908
1909
1912
1913
1918
1919
1920
1921
1922
1923
1924
1925
1926
1927
1928
1934
1935
1936
1937
1938
1939
1940
1941
1946
1947
1948
1949
1950
1951
1952
1957
1960
1961
1962
1963
1964
1968
1971
1974
1975
1976
1977
1978
1979
1996
1999
2006
2007
2008
2009
2010
2021
2032
2033
2034