/*--------------------------------*- C++ -*----------------------------------*\
  =========                 |
  \\      /  F ield         | OpenFOAM: The Open Source CFD Toolbox
   \\    /   O peration     | Website:  https://openfoam.org
    \\  /    A nd           | Version:  8
     \\/     M anipulation  |
\*---------------------------------------------------------------------------*/
/*   Windows 32 and 64 bit porting by blueCAPE: http://www.bluecape.com.pt   *\
|  Based on Windows porting (2.0.x v4) by Symscape: http://www.symscape.com   |
\*---------------------------------------------------------------------------*/
FoamFile
{
    version     2.0;
    format      ascii;
    class       scalarListList;
    location    "constant/vegetation";
    object      F;
}
// * * * * * * * * * * * * * * * * * * * * * * * * * * * * * * * * * * * * * //


344
(

825
(
0.0079255426
0.0062696575
9.1696218e-06
0.00013881291
6.4227884e-06
9.7347412e-05
9.169369e-06
0.00041567851
7.1819441e-06
2.4054068e-06
9.0466311e-05
3.4329596e-06
6.7307106e-06
0.00015144995
9.9430405e-05
7.2057966e-05
8.712849e-06
6.0592646e-05
8.4355499e-06
6.3350523e-05
8.6809013e-06
6.8135314e-05
5.0045001e-05
8.3760457e-06
6.5215732e-05
1.846935e-05
4.9208946e-06
4.605484e-05
5.3609794e-06
0.00010702555
0.00050628465
7.9733676e-05
0.00012829155
6.2408118e-05
0.00028540326
0.00042112538
0.00030606655
0.00028144945
5.820925e-05
0.00066685332
0.00018107719
0.00013017496
0.00010374578
8.69942e-05
0.00010188357
8.0539823e-05
0.00014070398
0.00013091745
0.00057090211
0.00056244127
0.00055237661
7.7597318e-05
9.2765477e-05
5.4260702e-05
6.9728526e-05
0.00011416607
0.00011629533
0.00013850959
0.00012501224
0.00012254648
0.00011158051
0.00013681992
0.0001638166
0.00014719893
6.1437876e-05
4.3735995e-05
4.4409001e-05
4.331027e-05
3.3293421e-05
4.2865127e-05
3.0977691e-05
0.00059891042
0.00061618161
0.00052054907
0.00060093044
0.00054383163
7.9865283e-05
0.00010544635
9.5956346e-05
0.00011135834
0.00010940247
9.5700623e-05
6.5765511e-05
7.4566276e-05
7.7595532e-05
0.00017340041
0.00016253217
0.00015687883
0.00012257718
0.00015122247
0.00013091169
0.00012459619
0.00015326419
0.0001310856
2.7448347e-05
9.0881507e-06
2.7208044e-05
2.8312461e-05
7.0475961e-06
2.4530042e-05
2.7451875e-05
9.0854005e-06
2.7226385e-05
2.1484509e-05
7.6144231e-06
2.2794529e-05
9.9528108e-06
4.0565797e-06
1.1927881e-05
2.0111609e-05
6.2712939e-06
1.8729364e-05
8.932112e-06
2.6286457e-05
2.6781112e-05
4.0727875e-05
8.0151338e-06
2.5835151e-05
2.5388243e-05
8.9204148e-06
2.6052621e-05
2.6770049e-05
8.01654e-06
2.5105436e-05
2.4006283e-05
1.6414139e-05
1.963693e-05
4.4953669e-06
1.4656304e-05
1.3331353e-05
5.8124874e-06
1.5997819e-05
1.7357007e-05
7.7135593e-06
1.3158028e-05
4.6264938e-05
6.3362554e-05
4.5566472e-05
4.6231923e-05
6.9937697e-05
4.6175936e-05
6.9674134e-05
4.4737162e-05
4.5936967e-05
3.5993673e-05
6.0148421e-05
3.8462801e-05
5.5603355e-05
4.2648801e-05
4.0489103e-05
3.9742065e-05
2.6455962e-05
2.8710889e-05
0.00094384789
0.00080540546
0.015915762
0.0086239173
0.0047223029
0.012836854
0.046724336
0.032313181
0.014946565
0.032718559
0.00062956419
0.00053614163
0.00048257301
0.00062461856
0.00061226022
0.00013408851
0.00014906767
0.00015849933
0.00015273051
0.00012813445
0.00015859349
0.00015596713
0.0006530588
0.00052285754
0.00010639442
0.00011056984
0.00061592766
0.00017190224
0.00016543874
0.00014467184
0.00058063018
0.00016135025
0.00012464321
0.00012392234
0.000101901
9.7167797e-05
0.00013802118
5.7540603e-05
5.1032953e-05
8.4199177e-05
0.00017196122
0.00012462561
0.00012387187
0.00011810618
0.00013963589
0.0001228529
0.00011763831
0.00011434708
0.00014466693
0.00013090867
0.00012715296
0.00012037666
0.00012248681
0.00013894613
0.0001574985
0.00013809765
0.00013403419
0.00015556255
0.00013644751
0.0001130034
0.000121819
0.0001076378
8.7261497e-05
9.2270568e-05
0.00011520795
9.629975e-05
0.00010206522
8.2157998e-05
7.6859115e-05
0.00011625384
0.00010796144
0.00013538409
0.00012003165
0.00012237466
0.00013900317
0.00015786312
0.0001383482
0.00013595242
0.00015669513
0.00013719718
0.00060013412
0.00063774378
0.00017077318
0.00019448782
0.00019332236
0.00016860925
0.00018707485
0.00019092521
0.00015084262
0.00016261897
0.00017014037
0.00015644332
0.00018243043
0.00017641666
0.0001308225
0.00015518869
0.00014558029
0.00012221603
0.00017094688
0.00019450022
0.00019206634
0.00016792923
0.00018786023
0.00014846998
3.2816257e-05
0.010768926
0.037424701
3.9446452e-05
1.8358489e-05
2.9697346e-05
2.4385992e-05
9.9010205e-05
8.775328e-05
0.0001398695
6.1726931e-05
8.5146413e-05
7.5326412e-05
0.00012136783
0.00013555424
7.9398763e-05
8.0809036e-05
7.3806403e-05
7.2544386e-05
6.5572824e-05
5.8440917e-05
7.8849597e-05
8.077976e-05
9.6770425e-05
9.9282729e-05
8.6135036e-05
8.8110504e-05
7.6485027e-05
8.5246228e-05
0.00017992949
0.00026182648
0.00019464674
0.00024561018
0.00013528232
0.00015526703
0.00020306244
0.00016958627
0.00017943746
0.0002175499
0.00010015945
0.00010176319
0.00026566019
0.00020693235
0.00020313423
0.00025683505
0.00016457668
0.00014201534
4.858315e-05
4.9303398e-05
2.5304322e-06
2.1897954e-05
7.1110078e-05
4.8720888e-06
2.9442258e-05
1.1073064e-05
4.7728483e-05
4.3870226e-05
4.3523077e-05
4.8700276e-05
4.0529519e-05
2.7535345e-05
6.6257385e-05
0.00038622424
9.6032308e-05
4.3822097e-05
0.000263936
1.5064823e-05
4.1256063e-05
9.5789888e-05
5.8383114e-05
0.00010914319
0.00015610711
0.00017359298
6.1143001e-05
6.3050155e-05
0.00011252791
0.00012462308
9.8556819e-05
5.9890684e-05
0.00010799412
5.7349184e-05
0.00048469719
0.00044516552
8.7177413e-05
5.3269322e-05
3.6696301e-05
0.0001190669
0.0001168847
0.00036030282
0.00015506728
0.00031002033
0.00011346943
0.00020484006
0.00012772946
0.0001667842
0.00023677603
0.00018708564
4.9178359e-05
4.9441305e-05
0.0002225549
0.00013434098
0.0001534381
0.00028420997
5.6916809e-05
6.2639675e-05
0.00012427926
0.00012695535
0.00035469825
0.00016007204
0.0001580456
0.00030531005
5.3372634e-05
5.275898e-05
1.3381188e-05
6.314843e-06
4.0327002e-05
2.1567848e-05
3.2653298e-05
8.3046381e-06
4.6677189e-05
4.5438472e-05
4.5859806e-05
4.7570647e-05
3.6864449e-05
3.2529286e-05
0.00019256336
0.00030096767
0.00013182183
7.162145e-05
0.00012811728
2.9883181e-05
0.00018451372
0.00020249066
4.4449817e-05
2.095459e-05
8.358595e-05
9.602912e-05
7.2008006e-05
6.8294061e-05
0.00012367491
0.00010815251
0.0001393757
0.0001505225
0.0001659794
8.9292588e-06
1.5648376e-05
6.218745e-05
7.7577901e-05
6.2864274e-05
8.1614783e-05
0.0002603084
0.00034686513
0.00046690729
0.00037895357
5.8642703e-05
7.5602356e-05
7.2062145e-05
5.7663807e-05
4.8677799e-05
7.1331034e-05
4.9982378e-05
4.3140607e-05
5.965362e-05
7.5734444e-05
6.1536558e-05
8.1654303e-05
9.3829796e-05
0.00011707802
0.00010110384
0.00012122484
8.4942807e-05
0.00010084686
0.00010397001
9.0802318e-05
0.00049023256
0.00047864741
6.5810114e-05
0.00010060359
0.00011122732
9.2059464e-05
0.00015898387
0.00013371886
0.00026962751
0.00035642205
0.0001463983
0.00020355838
0.00021995856
0.00034041688
0.00012979134
0.00011718363
0.00014758867
0.00017710877
0.00020051547
0.00018897734
0.00024211851
0.00015967255
0.00014115462
0.00014766584
0.00018869659
0.00026288606
0.00023182339
9.698564e-05
0.00012711939
0.00010200482
0.00012789929
0.00027040439
0.00034220822
0.00020736886
0.00016188252
0.0001610287
0.00019680795
0.00032512218
0.00024520197
0.00028687171
0.00031591467
0.00044118242
0.00041099653
0.00017593364
0.0001895956
0.00012187933
0.00015027633
0.00021679672
0.0038532284
0.0074477724
0.021799417
0.019499421
0.047553041
0.029284452
0.06666065
0.060817792
0.00073292546
0.0050336464
0.00068119353
0.0042608188
0.002771873
0.002933248
0.0038359563
0.0020310822
0.0027187438
0.0028842371
0.0037812953
0.0019896325
0.00073997089
0.00030269104
0.00046014828
0.0004867037
0.00071746878
0.00029827719
0.00045930053
0.00047526317
0.00023282799
0.00023982676
0.00019658545
0.00018150749
0.00023346137
0.00024005297
0.00020462101
0.00019189854
0.0036004128
0.00068400158
0.00068215914
0.00025729565
0.00023467276
0.00035246987
0.00039259214
0.00058087215
0.00053224176
0.00057774022
0.00054799074
0.00064499427
0.00068587674
0.00047233693
0.00031405938
0.00032209303
0.0025627593
0.0022053221
0.0031081405
0.0010113947
0.00098053509
0.0036444806
0.00095790213
0.00067422278
0.00067841017
0.00024661803
0.00022442307
0.00026604172
0.00029405961
0.00041710417
0.00047198037
0.0014448252
0.0013003484
0.0010854339
0.001190799
0.00076065823
0.00067972581
0.00033648791
0.00038889908
0.00037596183
0.00044073099
0.00056002855
0.00051170165
0.0003600326
0.00035362348
0.0025658667
0.00089646253
0.00024475362
0.00026826462
0.0016678749
0.00065550667
0.00059486893
0.00053944608
0.00050618602
0.00066774659
0.00061391306
0.0020824693
0.0014014278
0.004596458
0.00046459416
0.0020205505
0.0013907388
0.0045630552
0.00045664594
0.001387788
5.5985024e-05
0.00039568555
0.0002782129
0.0013406844
0.00027488756
0.00023843526
0.0002628465
0.00022466249
0.00024305659
0.00026371365
0.00023234116
0.0001960325
0.00051854507
0.00043966085
0.00069219301
0.00084798053
0.00025501349
0.00052212737
0.00070692428
0.00045475623
0.00065067177
0.00028399213
0.00027094194
0.00059687883
0.00038285107
0.00029256693
0.0020930722
0.0032650365
0.0015284052
0.0040836046
0.0014606347
0.00050717609
0.0012046159
0.00045618951
0.001957309
0.0043944533
0.0049347661
0.0040526995
0.0039668703
0.0028081922
0.001747815
0.0013924073
0.00024520206
0.00047832085
0.0002581162
0.00026048398
0.00035756424
0.00020339324
0.0029969136
0.0018338152
0.0036048192
0.0011190994
0.0039606422
0.0045862276
0.0012869102
0.00075355286
0.00028623242
0.00037622994
0.00040665663
0.00061534519
0.00191126
0.0013139333
0.00081176833
0.001021931
0.00049244511
0.0004084851
0.0010688742
0.00070910962
0.0029189703
0.0017920488
0.0035801491
0.0010990993
0.0038845018
0.0045608842
0.0012599572
0.00073847416
0.00090815897
0.0011695658
0.00022901165
9.5699913e-05
0.00057560504
0.00031265439
0.00079055969
0.00016608643
0.00087765118
0.0011367317
0.00010345112
0.00057745144
0.00077294847
0.00016661163
0.00022290187
0.00024959462
0.00025789935
0.00024346972
0.0002087029
0.0002106014
0.00019136228
0.00025284483
0.00022455694
0.00026018954
0.00024351936
0.00022028221
0.00021465819
0.00020011693
0.00026727318
0.00039883599
0.00060334152
0.0026296418
0.0019277698
0.0015640698
0.0013534727
0.00098611991
0.0019201817
0.00099164291
0.0011589043
0.0011027607
0.0005089287
0.00066254272
0.00064840156
0.000493236
0.00023756049
0.00028458851
0.00021646127
0.00021808606
0.00031439733
0.00031639315
0.00034458134
0.00043644557
0.00046889936
0.00062594047
0.00044002046
0.00048339733
0.00060689903
0.00083838291
0.00099073279
0.00048753528
0.00058865278
0.00046853618
0.00050882831
0.00059218508
0.000763361
0.00070636305
0.00081952217
0.0002614766
0.00043306148
0.00027110726
0.00048663739
0.00028236805
0.00030057565
0.00029080753
0.0003404692
0.0028683401
0.0019571087
0.0017520365
0.0018613172
0.003631768
0.0035955279
0.00099369476
0.0014279818
0.0013316563
0.0009194545
0.0026414404
0.0033829842
0.00095547731
0.0014156009
0.00064721375
0.00064920059
0.00022815263
0.00028029618
0.00020782834
0.00024283708
0.0002848688
0.00031731049
0.00032832797
0.00036929299
0.00046532365
0.00053415939
0.00053449153
0.0017473293
0.0014901975
0.0015577013
0.0011211763
0.00095395207
0.00090825457
0.0012354151
0.00098524736
0.00084274248
0.00093734801
0.00060362548
0.0008165639
0.00030094526
0.00034124156
0.00043786197
0.00041862991
0.00050250081
0.00049491425
0.0006067008
0.00046409613
0.00041408961
0.0003370092
0.00040441421
0.0021092722
0.0019437143
0.00081077573
0.00027022572
0.00042674742
0.00029949619
0.0025037575
0.0013249269
0.0011579483
0.001385093
0.00072780379
0.00054382013
0.00068386951
0.00057229956
0.0004753661
0.00070156687
0.00083547223
0.00055788356
0.010722759
0.013409955
0.0035342421
0.0012360547
0.00054181051
0.012853203
0.001551658
0.0089010089
0.0013547817
0.0025220229
0.004089143
0.0011723062
0.0092106242
0.013446324
0.0032448208
0.041883326
0.0025327833
0.001196948
0.0046422804
0.0009456653
0.0018211666
0.0027421684
0.0029250877
0.001176052
0.0011630825
0.0019193961
)


1397
(
0.0099778509
0.0089194638
0.019863785
0.0065638888
0.021763021
0.032738164
0.0064111933
7.5039266e-06
2.0120339e-07
1.0731114e-05
3.818884e-07
1.4679334e-05
1.0287989e-05
1.9034994e-05
1.1329207e-05
1.5379471e-05
8.2511411e-06
1.8780825e-05
1.3360323e-05
1.1197993e-05
1.6057603e-06
3.002408e-07
2.0763155e-06
3.837605e-06
3.453977e-07
2.7261709e-06
1.846732e-06
2.3724953e-06
2.925668e-06
2.5268943e-06
1.652416e-06
1.0221873e-06
1.4043341e-06
1.2421946e-07
9.1920046e-07
1.1877863e-05
8.8849878e-06
5.8274855e-06
7.9493583e-06
3.7042005e-06
3.0417325e-06
3.4841165e-06
5.2815221e-06
4.092571e-06
1.355996e-05
3.3697259e-06
2.9248214e-06
2.1465342e-06
1.2063105e-05
2.7493988e-06
1.9218856e-06
5.9049596e-06
1.1706244e-06
2.332558e-05
5.7316588e-06
7.7511592e-06
1.1647055e-05
8.5556667e-06
8.7083698e-06
3.4650148e-06
5.1393407e-06
3.940048e-06
1.7873093e-06
2.0319561e-06
1.9682178e-06
2.2073859e-06
2.3027337e-06
2.1402087e-06
2.8526006e-06
2.8031941e-06
2.7299585e-06
2.4553205e-06
2.6703788e-06
2.5977282e-06
1.5981446e-06
1.4491313e-06
1.4015603e-06
1.238201e-06
9.9049162e-07
1.1985742e-06
1.6567442e-05
1.0696039e-05
1.2003261e-05
9.9228906e-06
9.6728138e-06
1.0874559e-05
6.3825443e-06
6.4470228e-06
7.0469013e-06
8.6598936e-06
7.1459084e-06
7.7992985e-06
2.9676032e-06
3.1635533e-06
3.0798407e-06
3.3549744e-06
3.3058426e-06
3.2001453e-06
5.7965967e-06
4.8152578e-06
5.2859988e-06
4.508857e-06
4.4280657e-06
4.8572813e-06
1.3138278e-05
7.6167584e-06
9.6081814e-06
1.7425563e-05
2.2400593e-05
2.0965057e-05
1.629072e-05
1.5588891e-05
1.8888753e-05
3.2361305e-06
4.0205294e-06
3.8856108e-06
3.0872903e-06
3.5236144e-06
3.7194763e-06
2.3597327e-06
2.5950971e-06
2.8610199e-06
2.5607889e-06
3.3240668e-06
3.0920653e-06
1.6842075e-06
2.3344563e-06
2.0251533e-06
1.4255949e-06
1.2747073e-06
1.7167734e-06
6.3530448e-06
5.9107468e-06
6.5854195e-06
6.9878067e-06
7.2680934e-06
7.1941264e-06
9.7032935e-06
9.2596858e-06
9.4335602e-06
3.5853849e-06
4.1003858e-06
3.8323329e-06
4.6605677e-06
5.287252e-06
4.3590256e-06
3.7596566e-06
4.2947447e-06
4.5404792e-06
1.7764421e-07
8.2125959e-06
1.0286024e-07
8.0228379e-07
5.3738983e-06
4.8441e-06
3.0405787e-06
8.555862e-08
3.5030999e-07
3.8653715e-07
7.7918736e-07
5.7884263e-07
5.6725796e-07
3.6028095e-06
4.1662847e-06
5.538676e-06
5.3441984e-07
1.5758141e-07
4.7515945e-07
6.6837065e-06
6.2461605e-06
5.5484295e-06
6.0531988e-07
2.2893434e-07
6.8837437e-07
1.8734588e-06
4.0826744e-07
1.3879428e-06
1.1426592e-05
9.6882803e-06
9.8415657e-06
5.9235656e-06
9.9990653e-06
7.356314e-06
1.0414684e-05
8.4782227e-06
7.7118404e-06
1.4037469e-07
3.8617095e-07
4.2651257e-07
5.7959456e-06
3.9920238e-06
4.791266e-06
2.6164581e-07
9.0149939e-07
7.8562781e-07
2.7907246e-06
3.1555893e-06
2.2875803e-06
3.9273843e-07
1.0416126e-06
1.2089956e-06
1.1517759e-05
1.0306503e-05
1.0029331e-05
8.918065e-06
6.877672e-06
7.4488208e-06
1.1009264e-05
9.5277208e-06
9.3316471e-06
9.500797e-06
8.3945988e-06
7.9547081e-06
1.0750266e-05
8.7690215e-06
9.0800725e-06
9.0573626e-07
1.1154294e-06
8.0187702e-07
1.1440018e-06
6.5461488e-07
7.2395063e-07
5.7380471e-06
4.7023374e-06
5.080943e-06
3.594023e-06
4.0212732e-06
4.341207e-06
1.0360562e-06
1.8301337e-06
1.1773075e-06
2.0387742e-06
1.5121104e-06
1.327193e-06
2.8396494e-06
1.7541624e-06
2.035185e-06
9.0299819e-06
7.9684744e-06
9.1765593e-06
6.3324999e-06
6.4666963e-06
6.8720751e-06
6.9203757e-06
7.7821856e-06
7.3555002e-06
8.9303906e-06
8.2979161e-06
8.7251066e-06
8.1513065e-06
8.0395415e-06
8.4652796e-06
0.0001168489
5.4306048e-06
6.9177988e-06
3.996127e-05
5.0580811e-06
2.8214049e-06
8.6792053e-07
3.6175305e-05
1.2357465e-06
2.5770777e-06
0.00012823622
4.0228512e-05
6.5484412e-06
6.0294378e-05
6.9073438e-06
4.9634782e-05
3.9971334e-06
3.1675309e-05
1.9858928e-05
3.6741382e-06
2.8949031e-05
1.7806053e-06
1.2236238e-05
1.7804765e-05
1.955402e-06
1.3480421e-05
4.44607e-05
7.5723208e-05
6.2927982e-05
5.9035832e-05
2.4921825e-05
0.00012536077
0.00020682551
0.00013603677
2.7578374e-05
2.26462e-05
1.7183675e-05
1.5602805e-05
0.00015476971
0.00016092699
3.0733543e-05
5.9537135e-05
5.5865723e-05
4.3943301e-05
3.5337712e-05
4.2752457e-05
3.3048356e-05
3.1869806e-05
2.9106444e-05
3.6777731e-05
4.4161945e-05
4.0400703e-05
6.5478968e-05
5.6821346e-05
0.00026898068
0.00025424497
0.00026811861
0.00010587031
9.4322372e-05
6.8191075e-05
8.1708e-05
3.0216336e-05
2.425535e-05
2.6593134e-05
2.0671766e-05
2.7339647e-05
2.4972824e-05
3.3651742e-05
3.6928799e-05
4.9097872e-05
5.3569056e-05
4.4890659e-05
4.8941347e-05
4.8950881e-05
6.0299385e-05
3.2989904e-05
5.3831947e-05
3.5656083e-05
3.8663503e-05
1.2809563e-05
1.6229326e-05
1.1673499e-05
4.8951261e-05
4.9748019e-05
4.1665107e-05
2.7130015e-05
3.001001e-05
3.2248725e-05
1.8863966e-05
2.0782675e-05
2.2801471e-05
4.2342195e-05
4.0171358e-05
5.4525922e-05
7.1269364e-05
5.9079831e-05
5.3199196e-05
6.8746153e-05
5.7836293e-05
0.00010418755
0.00010890956
9.7080463e-05
1.6274361e-05
5.8053582e-06
1.739873e-05
3.0855415e-05
6.8735189e-06
2.4198153e-05
1.516208e-05
4.6922329e-06
1.4080646e-05
8.4541046e-06
3.0856279e-06
9.2526249e-06
3.5869003e-06
1.4588701e-06
4.295397e-06
7.7129141e-06
2.352039e-06
7.0356015e-06
9.0394766e-05
7.0334888e-05
8.4104564e-05
6.1786966e-06
1.9788761e-05
1.8547176e-05
4.4401688e-05
5.5731891e-05
4.0377018e-05
7.1644683e-06
2.1217361e-05
2.2827322e-05
4.337379e-06
1.201484e-05
1.303581e-05
3.3699809e-06
1.103048e-05
1.0108609e-05
5.9304054e-06
7.0904144e-06
1.6192081e-06
5.3111535e-06
4.8087381e-06
2.1452731e-06
5.8440114e-06
6.4160935e-06
0.00013844108
0.00011946121
0.00012897706
0.0001472884
0.00014433599
0.00013724074
0.00016580039
0.0001502975
0.00015502734
2.7863024e-06
2.5586244e-05
3.6375775e-05
2.3942208e-05
3.4244345e-05
2.0698968e-05
2.2437981e-05
1.4211768e-05
2.467378e-05
1.5669119e-05
2.3651972e-05
1.880451e-05
1.7111839e-05
1.1056406e-05
8.8005249e-06
7.9530446e-06
1.4804093e-05
9.6934074e-06
1.0645922e-05
0.00038121887
0.031655039
0.032451767
0.010091876
0.00017352522
0.00017190052
8.3248622e-05
8.8759847e-05
0.00017698872
0.00013873201
0.00012993182
0.00024413125
9.4612629e-05
0.00029934967
8.860902e-05
8.5072983e-05
8.0686603e-05
5.3798312e-05
8.3967053e-05
0.00017505054
0.00014738002
8.9384173e-05
9.3560414e-05
6.7622741e-05
7.4231299e-05
7.1916953e-05
7.6284276e-05
8.8893253e-05
7.9039219e-05
9.438942e-05
8.3939859e-05
0.00023939512
0.00015796432
0.00014683105
0.00010357068
0.00010184204
0.00014959868
0.00012032147
0.0001292767
0.00010107107
9.7516949e-05
0.0001139188
0.00010860131
0.00029981371
0.00010076442
0.0001050279
8.2792949e-05
9.8426437e-05
9.1544627e-05
0.00015776812
0.00016646085
0.00016108031
6.4827078e-05
4.9931405e-05
0.00017427141
0.00016272312
0.00016328367
0.00017445038
0.00016147582
0.00016274631
0.000169428
0.00016102152
0.00015856268
0.00016177901
0.00016155215
0.00016019054
0.0047737417
3.245804e-06
1.6511305e-06
2.6981763e-06
1.9804528e-06
5.625424e-06
4.1609532e-06
6.8338753e-06
3.4228797e-06
1.7306543e-05
1.5415257e-05
2.4746828e-05
2.7968959e-05
1.141225e-05
1.1053162e-05
1.2313434e-05
1.272066e-05
6.5855065e-06
5.6810948e-06
8.9234794e-06
9.5642892e-06
1.3414531e-05
1.3027476e-05
1.4841134e-05
1.4381962e-05
6.8141899e-06
7.8863686e-06
1.1701904e-05
1.6223574e-05
1.3461847e-05
1.4140203e-05
2.2556107e-05
2.5888382e-05
2.4890455e-05
2.1297762e-05
2.0902762e-05
2.4536516e-05
1.0623375e-05
1.1360062e-05
2.1144684e-05
1.7720351e-05
1.8778979e-05
2.2321798e-05
2.5495327e-05
2.2110955e-05
7.7845361e-06
6.981378e-06
2.6742009e-07
2.3586817e-06
5.3661236e-06
4.8043347e-07
2.9563909e-06
7.9616827e-07
7.9753859e-06
8.3148397e-06
5.3141017e-06
6.6288436e-06
4.7942641e-06
3.0187581e-06
2.1262643e-06
1.4243648e-05
6.4392087e-06
1.7131856e-06
1.1522145e-05
9.5222198e-07
8.1547974e-06
1.8283446e-05
1.1455574e-05
2.0771643e-05
3.0501752e-05
3.4749198e-05
9.5226488e-06
8.5809871e-06
1.5992298e-05
1.4756413e-05
1.7738476e-05
9.7619679e-06
1.6292634e-05
1.0728379e-05
2.6707793e-05
1.7860841e-05
6.7900821e-06
5.9407855e-06
3.7582289e-06
1.0572978e-05
8.1390329e-06
2.1893123e-05
1.2599107e-05
1.4485478e-05
2.0281202e-05
2.9346345e-05
1.8860894e-05
3.0251835e-05
3.417294e-05
3.4656062e-05
7.557682e-06
7.2907032e-06
2.9301898e-05
1.85801e-05
1.7325702e-05
2.8425424e-05
6.5759523e-06
8.1628135e-06
1.1634712e-05
1.4146058e-05
2.3789347e-05
1.3828952e-05
1.6664114e-05
2.7687886e-05
4.4813507e-06
3.8858808e-06
1.3153636e-06
5.6615715e-07
3.726163e-06
2.135205e-06
2.3662334e-06
6.7064971e-07
8.134409e-06
8.2580785e-06
5.7942869e-06
6.2329523e-06
4.2370618e-06
3.6447793e-06
6.3322233e-06
1.0375899e-05
7.7597825e-06
4.6641315e-06
5.1057203e-06
1.395422e-06
9.4149932e-06
8.3769954e-06
2.8376719e-06
1.1477231e-06
1.6064146e-05
1.9451572e-05
1.3974999e-05
1.4108406e-05
2.3589209e-05
2.1923708e-05
2.6808074e-05
3.1647363e-05
3.5844226e-05
9.4262525e-07
1.6638037e-06
9.2555805e-06
1.1719055e-05
8.9442172e-06
1.0628384e-05
3.4309193e-05
3.3832751e-05
2.8894594e-05
3.3131003e-05
1.0004267e-05
1.2002396e-05
1.3288529e-05
1.0297912e-05
5.2567318e-06
7.4306954e-06
4.7246943e-06
4.5275557e-06
7.1593546e-06
8.211376e-06
7.6887942e-06
1.0132601e-05
1.3739288e-05
1.5663014e-05
1.2560298e-05
1.5258645e-05
1.5454707e-05
1.7115517e-05
1.6639811e-05
1.4040109e-05
2.4127591e-05
2.1169359e-05
5.6753238e-06
8.1412983e-06
9.405845e-06
8.8828143e-06
9.7941297e-06
9.7430322e-06
1.8092558e-05
1.9699412e-05
1.1234044e-05
1.5058078e-05
1.1861841e-05
1.7222419e-05
2.3155701e-05
1.966317e-05
2.64488e-05
2.9762462e-05
3.4282032e-05
2.510983e-05
2.9189361e-05
2.1581421e-05
1.8262925e-05
1.7854153e-05
2.0362062e-05
2.8915204e-05
2.4004738e-05
9.7966885e-06
1.2585716e-05
1.2005506e-05
1.3423039e-05
1.9734927e-05
2.5383596e-05
1.6479552e-05
1.4917612e-05
1.5862524e-05
1.9657552e-05
2.6679512e-05
2.3271664e-05
3.4365633e-05
3.4229614e-05
3.0685869e-05
3.2091193e-05
2.5272587e-05
2.9457917e-05
1.9192577e-05
2.1818834e-05
3.411568e-05
0.00067385631
0.00066755964
0.047562255
0.040130198
0.093883432
0.065511765
0.068547495
0.081034704
0.034206048
0.0011401627
0.00057474199
0.00073907231
2.7144744e-06
3.6142251e-05
3.0455518e-05
3.3712125e-05
3.1811497e-05
0.00045305767
3.6818638e-05
0.00035154523
0.0007087194
0.00016528598
0.00017105778
0.00044173521
0.00025727991
0.00043367185
0.00097207349
0.00052444675
2.0332023e-05
7.0799202e-06
5.2156979e-05
0.00020673512
9.7506313e-06
7.0837091e-05
0.0012083412
0.0022501709
0.00030404739
0.00026238727
0.0013220336
2.0264995e-05
3.5146294e-05
3.4961381e-05
2.9921133e-05
8.5976068e-05
0.00011432568
0.0002195145
0.00014576947
0.00013266364
7.7483775e-05
5.563425e-05
3.3455572e-05
4.9508315e-05
0.00071084148
0.00092574913
0.00041928113
0.00073354951
0.00021902244
0.00035380707
9.5650709e-05
0.00018734473
0.00012793585
0.0002033479
3.4117076e-05
5.2733666e-05
8.6241416e-05
0.00026439243
6.0315855e-05
0.00030384844
0.00036154637
0.00078571385
0.00063942773
0.0015026476
0.0018561371
8.2415152e-05
9.5503719e-05
9.0464042e-05
0.00010597628
0.00010776762
9.9461352e-05
0.00018903949
0.00016466642
7.5036517e-05
6.9643187e-05
6.8066961e-05
6.2359963e-05
5.5334651e-05
6.1482096e-05
3.5850371e-05
3.90663e-05
4.0352509e-05
4.9702915e-05
4.4061325e-05
4.4714034e-05
0.00041272989
0.00065671254
0.0003426786
0.0004233523
0.00062796584
0.00040595937
0.00053404568
0.00031573328
0.00036672657
0.00082724091
0.001219716
0.00065184381
0.00059540777
0.00057856416
0.00050068276
0.00049900045
0.00037359791
0.00043521867
0.00025575131
0.00020892397
0.00024282193
0.00030000702
0.00032419157
0.00027873018
0.00010680088
0.00011321302
0.00011559175
0.00016255281
0.00018133142
0.00014573169
0.00011971525
0.00014378353
0.00014752231
3.4991432e-05
4.0716047e-05
4.6881336e-05
4.6295638e-05
6.0498401e-05
4.7620293e-05
7.6860749e-05
0.00010206642
9.0137116e-05
6.8236049e-05
6.9472649e-05
7.9634685e-05
1.7084566e-06
3.4002854e-05
0.0013195217
4.8321202e-05
3.738369e-05
1.6341408e-05
0.00062018561
0.0026120169
2.950763e-05
8.1188651e-06
0.00084540016
0.0013627107
0.0012619781
0.00024672566
2.5092539e-05
0.00018986042
1.2050716e-05
0.0026587133
0.0027573763
3.9803781e-05
0.00016887404
2.7386231e-05
0.00014086458
8.1189712e-05
0.00023704217
3.217067e-05
9.0592149e-06
3.902733e-06
1.1884446e-05
8.9182278e-05
2.010414e-05
5.9155375e-05
3.432652e-05
3.3189665e-05
4.156728e-05
0.00020024645
0.00025276897
0.00023354662
4.1675794e-05
0.00026731773
2.3788642e-05
0.00014507167
0.00087224567
0.00043308825
3.0665039e-05
5.2461886e-06
2.1026253e-05
1.5662634e-05
1.3783007e-05
2.889057e-05
4.0718568e-05
3.9479217e-05
3.8823222e-05
3.3711286e-05
5.1878241e-05
4.8598863e-05
3.6116924e-05
4.8409325e-05
4.266354e-05
0.00099436677
0.00065546467
0.00073106865
0.0011373406
0.00075424931
0.00078281579
0.00022222623
0.0004360266
0.00036520793
1.49106e-05
3.0700754e-05
1.9853423e-05
3.5123717e-05
3.4795979e-05
2.5944979e-05
2.9523183e-05
3.2987579e-05
4.3090982e-05
0.00014435895
0.00014016237
9.6879968e-05
9.9945365e-05
4.7994621e-05
6.7264428e-05
4.0259718e-05
5.7439916e-05
5.477066e-05
4.0546997e-05
5.8106378e-05
5.6712238e-05
0.00016900194
0.00023989249
0.00013131079
0.00017711556
0.00023163973
9.4991779e-05
0.00014997121
0.00014829482
3.7123628e-05
3.1363101e-05
5.0560265e-05
2.2931009e-05
0.0012439846
0.0017947242
0.0024288908
0.00084366575
1.6505431e-05
7.9475482e-06
1.3001846e-05
1.0108518e-05
6.6853295e-05
7.5448956e-05
4.6051446e-05
4.0623309e-05
0.0001177111
0.00010610553
0.00015808086
0.00017129137
0.00021527443
0.0017340341
0.0020496447
0.00026507794
0.00023349944
0.00041339064
0.00048678337
0.00099241837
0.00082428159
0.00017225742
0.00020758502
0.00022944869
0.00018774822
0.00011753604
0.0001434987
0.00012427006
0.00036169341
0.000367655
0.00024740043
0.0013497294
0.001212797
0.00010632184
3.2519833e-05
2.9643053e-05
2.6203461e-05
4.5197684e-05
3.9472591e-05
0.00021624015
0.0002428192
0.00036480896
0.00042312132
0.00024651913
0.00032550884
0.00030199082
0.00023398432
0.0007872411
0.00067305319
4.0585759e-05
4.8011093e-05
4.0672353e-05
4.8441679e-05
3.6938846e-05
3.8496641e-05
0.00013181514
0.00015536826
0.00025597934
3.561331e-05
3.9467628e-05
4.4924728e-05
0.00015446891
4.1760655e-05
4.3934624e-05
9.2084181e-05
7.6283489e-05
0.00010128675
8.2118815e-05
0.00047143168
2.1637577e-05
0.00013280302
8.391068e-05
3.7441736e-05
1.4933197e-05
9.3169848e-05
5.7792933e-06
0.0007966521
0.001367799
0.0047856364
0.00014763188
2.882715e-05
4.3955504e-06
5.8579855e-05
8.6226587e-05
5.1488846e-05
0.00013842047
9.7758843e-05
0.00015511119
0.00021756363
0.00013681922
0.00022341733
0.000315222
0.00016394681
5.7893478e-05
0.0001565533
0.00015812292
0.00010235748
0.0001129036
8.7461618e-05
0.00015154185
0.00016648385
0.00020011734
0.00010259192
0.00052493608
0.00025439564
0.00050990368
0.00015635558
0.00085219412
0.0020215809
0.00073381598
0.0039771851
4.4270514e-05
0.00013809248
0.00018639852
0.00025064766
0.00010803764
8.2226269e-05
7.7293219e-05
3.5292331e-05
5.1807282e-05
7.7665803e-05
0.00017205
0.00035416037
0.00023565621
0.00023632154
0.00029608869
0.00037723602
6.3521046e-05
3.247841e-05
0.00019482364
0.00010115748
0.0002445822
5.0865152e-05
0.00041540449
0.00070498173
0.00026659496
0.00039528943
0.00019602323
0.00047427745
0.00035262618
0.00017328007
0.0016118184
0.00085548241
0.00065948195
0.00045165945
4.9550442e-05
2.7834728e-05
4.3984827e-05
1.0618991e-05
6.7096207e-05
7.0528284e-05
1.7134867e-05
7.7473114e-06
0.0014271449
0.0006585605
0.0055119421
0.00053492839
0.0025366211
0.0053201068
0.00043386567
0.00027859095
2.251834e-05
2.1259216e-05
2.6709936e-06
1.7804392e-05
1.305044e-05
3.4007302e-06
5.9112599e-05
6.6624438e-05
7.5813583e-05
8.4895459e-05
4.5195157e-05
5.2193971e-05
3.9626561e-05
0.00012369087
0.00012999328
0.00011024953
9.5139612e-05
0.00017337597
0.0001433501
0.00018609165
0.00028214324
5.7557889e-05
6.0310397e-05
0.00019707363
0.00014977726
8.2511705e-05
8.5207689e-05
0.00013411631
0.00016020644
8.566072e-05
8.5633315e-05
0.00012424049
0.002545587
0.0014454774
0.0023496299
0.0032005798
0.00030484778
0.00030460105
0.00020833958
0.00026572263
0.00049137886
0.00035345977
0.00058607963
0.00057684801
0.0012939637
0.0011979943
0.0010474588
0.00068767671
9.5985474e-05
0.00013143277
0.00010233233
0.00015690626
0.00014171761
0.00018761145
0.00025043607
0.00028107044
0.00025282705
0.00015339927
0.00020363254
6.4778628e-05
8.921998e-05
7.4366058e-05
0.00013679837
0.00013370212
0.0001647581
0.0001177714
0.00011225629
0.00033907095
0.00054332417
0.00053537622
0.00036107094
0.00022765498
0.00018123583
0.0014393485
0.00084579199
0.00080018869
0.0010627542
5.6660028e-05
7.6297922e-05
2.7979305e-05
4.2987649e-05
3.2557784e-05
2.2240616e-05
4.5544395e-05
5.4318172e-05
3.9728758e-05
0.00019432546
0.00018934028
0.00021009338
0.00027576592
0.00031611059
0.00030323322
0.00049267582
0.00034596504
0.00025464671
0.0001847561
0.000345926
0.00043396518
0.00039264314
0.00027728643
0.00018067387
0.0002193249
0.00091807743
0.00058513828
0.00057535445
0.00051517016
4.021661e-05
4.6938212e-05
5.6405605e-05
4.0363755e-05
5.7367112e-05
4.8040543e-05
3.4970449e-05
3.9638436e-05
0.00014276171
0.00018062917
0.00017009062
0.00025765383
7.1146148e-05
3.7818956e-05
3.9772945e-05
7.6090461e-05
4.5579916e-05
0.00015748566
0.00012900744
0.00013426629
0.00015220159
3.9771703e-05
4.6239492e-05
0.00013268538
0.00011433213
6.5328127e-05
0.00012504066
0.00011043332
6.7933201e-05
0.018211974
0.019334869
0.0065916342
0.007990615
0.00047489383
0.0020621232
0.00020457919
0.0083230904
0.0080869143
0.00090256559
0.00030593702
0.0024776311
0.0032018043
0.0009067661
0.0012199169
0.0021771916
0.00082439703
0.00055563618
0.0021474403
0.0015120116
0.0010193428
0.0018438362
0.00026312948
0.00096338563
5.2673372e-07
1.1747438e-08
1.2976456e-08
4.6750877e-06
5.7406578e-07
4.8301342e-06
9.4974475e-08
1.4221824e-08
1.0008563e-07
1.3240221e-07
1.5146575e-08
1.2196347e-07
5.9515849e-06