/*--------------------------------*- C++ -*----------------------------------*\
  =========                 |
  \\      /  F ield         | OpenFOAM: The Open Source CFD Toolbox
   \\    /   O peration     | Website:  https://openfoam.org
    \\  /    A nd           | Version:  8
     \\/     M anipulation  |
\*---------------------------------------------------------------------------*/
/*   Windows 32 and 64 bit porting by blueCAPE: http://www.bluecape.com.pt   *\
|  Based on Windows porting (2.0.x v4) by Symscape: http://www.symscape.com   |
\*---------------------------------------------------------------------------*/
FoamFile
{
    version     2.0;
    format      ascii;
    class       scalarListList;
    location    "constant/vegetation";
    object      kcLAIboundary;
}
// * * * * * * * * * * * * * * * * * * * * * * * * * * * * * * * * * * * * * //


5
(

344
(
4.985623e-05
0.036809853
0.91763376
0.59011609
0.19470358
0.91451431
1.143734
0.11167349
0
0.019164339
0.034966002
0.030775466
0
1.1018993
1.8655516
0.042109333
0.37009471
0.048272014
2.6040476
0
0.0096613868
0
0.0015859333
0
0.00056201729
0
0
0
0
0.0015319005
0.00038069978
0.00049717512
0.0016880119
2.513383e-05
0
0
9.2915746e-05
0.015685366
0.022115381
0.017213268
0.017206367
0.0066963518
0.013069595
0.007701353
0.011874873
0
0
0
0
0
0
0
0
0
0.001257377
0.0048000267
0
0
0
0
0
0
0
0
0
0
0
0
0
0.00038475125
0
9.4149166e-05
0.0048108917
0.00059170458
0
0
0
0
0
0
0
0
0
0
0
0
0
0
0
0
0
0
0
0
0
0
0
0
0
0
0
0
0
0
0
0
0
0
0
0.0030862697
0
0
0.004191688
8.5233566e-05
0
0
0.00050774646
0.0067576114
0.023920121
0.0089323005
0.0079459394
0.00074440699
0.0094708786
0
0
0
0
0
0
0
0
0
0
0
0
0
0
0
0
0
0
0
0
0
0.0021682738
0
0
0
0.0051893821
0
0
0.005313957
1.2804614e-05
0
0
0
0
0
0
9.6808509e-07
0
0
0
0
0
0
0.0013182767
0.0037340818
0
0.00013712926
0.00048776441
0
0.0041052523
0.0017153058
0
0
0
0
0
0
0
0
0
0
0
0
0
0.00019198977
0
0
0
0
0.00033286915
0.00019453882
0.013188068
0.0075164858
0.01913734
0.027464542
0.012756028
0.013497053
0.0074118629
0.017530924
0.0025208576
0.002562293
0.018807889
0.0026989566
0.0054697744
0.016832276
0
0
0
0
0
0
0
0
0
0
0
0
0
0
0
0
0
0
0
0
0
0
0
0
0
0
0.00071670829
0
0.0086287696
0.0025810106
0
0
0
0
0
0
0
0
0
0
0
0
0
0
0
0
0
0
0
0
0
0
0
0
0
0
0
0
0
0
0
0.00098388916
0.00098381684
0
0
0.0003532493
3.3238756e-06
0.0093188261
0.0028390496
0
0
0
0
0
0
0
0
0
0
0
0
0
0
0
0
0
0
0
0
0
0
0
0
0
0
0
0
0
0
0
0
0
0
0
0
0
0
0
0
0
0
0
0
0
0
0
0
0
0
0
0
0
0
0
0
0
0
0
0
0.57701052
1.1878903
1.5712438
0.54495492
1.8822724
0.28838683
0.35248686
)


344
(
0
0.30751262
2.1124639
0.73608713
0.38923909
2.0509289
1.7569039
1.6999617
0
0.75854306
0.2083696
0.29441403
0.00014122734
0.48719954
2.2356353
1.2532431
1.7561589
0.89082533
2.5001036
0
0.46087364
0
0.20095562
0.007943001
0.0810695
0
0
0
0
0.02510442
0.011952072
0.0062991041
0.053208644
0
0
0
0.0080939215
0.32885757
0.58329309
0.35557486
0.51271303
0.050396286
0.095320699
0.075260943
0.08854388
0
0
0
0
0
0
0
0
0
0.032727129
0.042657594
0
0
0
0
0.005030442
0
0
0
0
0
0
0
0
0.0030896632
0.0028594175
0.00089197532
0.04867542
0.037118477
0
0.014336778
0.013733529
0.026336811
0
0
0
0
0
0
0
5.8304118e-05
0
0
0.0060338316
0
0
0
0
0
0
0
0
0
0.00078072989
0.0070255776
0
0
0
0
0
0
0
0
0
0.0083226735
0
0
0.21173356
0
0
0
0.077363954
0.036084493
0.72223796
0.12085264
0.4423049
0.0090888837
0.2265933
0
0
0
0
0
0
0
0
0
0
0
0
0
0
0
0
0
0
0
0
0
0.0079086268
0.00010981066
0.0067603409
0
0.030201941
0.0064290641
0.02132279
0.030456386
0
0
0
7.2565462e-05
0
0
0
0.0029610879
0
0
0
0
0
0
0.0025022937
0.091758045
0
0.0085820881
0.0008795102
0
0.16577456
0.072200733
0
0
0
0
8.3073766e-05
0.0050606998
0
0
0.002320544
0
0.014123596
0
0
0
0
0
0
0
0.022116043
0.030929786
0.12270228
0.19388142
0.50288836
0.82997609
0.14884398
0.28228273
0.33159533
0.66791641
0.036012165
0.017615885
0.32749863
0.057093486
0.064842222
0.32584646
0
0
0
0
0
0
0
0
0
0
0
0
0
0
0
0
0
0
0
0
0
0
0
0
0
0
0.012482543
0.022278744
0.053198421
0.020485402
0
0
0
0
0
0
0
0
0.00015596274
0.012682609
0
0
0
0
0
0
0
0
0
0
0
0
0
0
0
0
0
0
0
0
0
0.00296998
0.0071409112
0.0063467283
0.0022771972
0.0009236126
8.3615547e-05
0.060839088
0.029373232
0.026407602
0.026160111
0
0
0.023973999
0
0.0029272417
0.040785051
0
0
0
0
0
0
0
0
0
0
0
0.00031331534
0
0.0013459182
0.0011666895
0
0
0
0
0.015798639
0.004810944
0
0
0
0
0
0
0
0
0
0
0
0
0
0.00058001525
0
0.0017987879
0
0
0
0
0
0
0
0
0
0
0
0
0
0
0
0.82645369
1.5904007
1.5255099
0.61972999
2.0675485
0.35665197
0.45989118
)


344
(
0.00071464605
0.079464313
1.8848239
1.3228022
0.044464957
2.2287965
1.114573
2.4428597
0.005550422
1.5450841
0.57744722
0.14592172
0
0.14783018
2.2150749
2.2198974
1.945207
1.4134494
1.7480063
0.00086175291
1.4385762
0
0.35288097
0.0034048828
0.044598553
0
0
0
0.0013176259
0.42011536
0.001506841
0.022692013
0.48394684
0.0082437575
0
0
0.0094766984
1.849342
2.0837906
1.7336595
2.1355514
1.0157169
1.6532958
1.3147642
1.2718928
0
0
0
0
0
0
0
0
0
0.35925493
0.58237072
0
0
0
0
0.020084408
0.0006913645
0
0
0
0
0
0
0
0.059770129
0.047556314
0.018748871
0.81149673
0.61850231
0.0019649286
0.39160734
0.26922986
0.49372715
0
0
0
0
0
6.5307133e-05
0
0.00011542617
0.00011073683
0
0.029237917
0.0077460212
0
0
0
0
0.0017777223
0.00066962134
0
0
0.017511709
0.21493326
0
0
0
0
0
0
0
0
0
0.73782579
0.00056442151
0.0003167955
1.0738715
0.019498952
0
0
0.27480791
1.2815267
1.5719445
0.71659745
1.7767405
0.42402638
1.0031263
0
0
0
0
0
0
0
0
0
0.00043555673
0
0
0
0
0
0
0
0
0
0
0
0.50192451
0
0.15697248
0.00010524141
0.89696637
0.067168202
0.28882104
0.45319279
0.017601609
0
0
0
0
0.010130138
0.013370837
0.28726359
0
0
0
0
0
0
0.31899303
0.93798438
0.00050705683
0.0021193197
0.049242894
0.00045031072
1.1010443
0.45817455
0
0
0
0.0024136014
0
0.075523249
0.00054106407
0
0.034193212
0
0.15095568
0.0046192466
0.0068750826
0.053741625
0
0
0
0
0.15024242
0.010692656
1.4936475
1.603674
1.3011664
2.2708369
1.3212913
1.0326112
1.8591201
2.1572443
0.78369018
0.5885986
1.9740916
1.0003845
0.78172838
1.5523306
0
0
0
0
0
0
0
0
0
0
0
0
0
0
0
0
0
0
0
0
0
0
0
0
0
0
0.10771783
0.2189393
0.93950232
0.22923044
0
0
0
0
0
0
0
0
0.0087883129
0.1059289
0
0
0
0
0
0
0
0
0
0
3.6696504e-05
0
0
0
0
0
0
0
0
0
0
0.18099045
0.26809503
0.22101529
0.043353456
0.039257805
0
1.1476292
0.52233805
0.41186792
0.43514253
0.005426554
0
0.57768387
0.17225069
0.059302637
0.73295579
0
0
0
0
0
0
0
0
0
0.00202396
0
0.0045815453
0
0.021739791
0.00041132143
0.00033016571
8.4520354e-05
0
0
0.21865858
0.0072902152
0.0045841817
0.0062447704
0
0
0
0
0
0
0.0033813785
6.2085451e-05
0
0
0
0.012735563
0.057482071
0.058435904
0
0
0
0
0
0
0
0
0
0
0
0
0
0
0
0.91927301
1.8263098
1.1803546
0.68109194
2.0788268
0.31080496
0.58529559
)


344
(
0.0072363094
0.0014028678
0.95320226
1.6865155
0.0020884822
2.0022276
0.37236965
1.8449135
0.033213846
2.0499933
1.1948063
0.0087468691
0
0.16901023
2.0895647
2.1775886
1.5671517
0.58788256
2.4379825
0.013471014
2.0586115
0
0.091282892
0.037111851
0.014984352
0
0
0
0
1.1950089
0.097758665
0.15730739
1.2150854
0.012342034
0
0
0.021800488
2.2350876
1.8877486
1.7440765
2.2813112
0.93081656
1.9251211
1.8314523
1.04994
0
0
0
0
0
0
0
0
0
0.85543732
1.1040705
0
0
0
0.0015209265
0.24557646
0.080693031
0
0
0.00040412095
0
0
0
0
0.91354659
0.69294636
0.23519441
1.7937723
1.455356
0
0.56313543
0.940074
1.2065317
0
0
0
0
0
0.0057422655
0.058875741
0.16885631
0.019482047
0.00099048585
0.47657231
0.16259031
0
0
0
0
0.11825954
0.029042038
0
0
0.20507637
0.47581328
0
0
0
0.068103926
0.015614979
0
0
0
0
1.7787082
0.010866919
0.0046446223
1.9397359
0.010611384
0
0
0.11040007
2.169814
1.0079919
0.56639441
2.2229389
0.28564739
0.45006542
0
0
0
0
0
0
0
0
0
0.033965387
0
0
0
0
0
0
0
0
0
0
0
1.6802993
0
0.8677028
0.0018408591
2.0724233
0.18301768
1.1531573
0.3856228
0
0
0
0.0005094232
0
0
0.10465944
0.23794799
0
0
0
0
0
0
1.1524666
1.8812153
0.0090579056
0.02960554
0.20403437
0.0071167935
1.9632293
1.1482728
0
0
0
0.037816171
0
0.62787093
0.060439331
0
0.13191862
0
0.82490144
0.070360438
0.0044913293
0.046074499
0
0
0
0
0.089946519
0.021983592
2.1403034
2.2619153
0.86563037
2.0095227
1.5429912
0.76551921
2.2922646
2.2404908
0.8086269
0.35672731
2.0254189
1.7344245
0.43272814
1.1283627
0
0
0
0
0
0
0
0
0
0
0
0
0
0
0
0
0.0007235016
0
0
0.060001698
0.021190582
0
0
0.0018917377
0.0038586421
0
0.22612834
0.63299038
1.343878
0.27282836
0
0
0
0
0
0
0
0.0066465448
0.074266791
0.43068493
0.023243954
0.013652688
0
0
0
0
0
0
0
0.004259943
0.0065970321
0
0.00038761143
0
0
0
0
0
0
0
0
1.0969138
1.4323809
1.1510887
0.44531476
0.23871682
0.0013021087
2.0462004
1.8068734
1.4810437
1.1151169
0
0
0.67746063
0.21027322
0.65977913
1.4968353
0
0
0
0
0
0
0
0
0
0.025535912
0.0066844671
0.10600641
0
0.30706691
0.38185665
0.1203623
0.0095603979
0
0.00072226314
0.79099857
0.49766561
0.047208835
0.17209159
0
0
0
0.0035884264
0
0.0022344542
0.37974887
0.015854009
0
0
0
0.14238116
0.14438439
0.35206575
0
0
0
0
0
0
0
0.20183019
0.0085286718
0
0
0
0
0
0
1.2735851
1.7807954
0.92757588
0.5386742
2.0053738
0.49676664
0.78375534
)


344
(
1000
0
1000
1000
1000
1000
1000
1000
1000
1000
1000
1000
1000
0
1000
1000
1000
1000
1000
1000
1000
1000
1000
1000
1000
0
0
0
0
1000
1000
1000
1000
1000
1000
1000
1000
1000
1000
1000
1000
1000
1000
1000
1000
0
0
0
0
0
0
0
0
0
0.75795857
0.91958191
0
0
0.0012567953
0.01073498
0.35883271
0.2329959
0.0029095949
0.0083528198
0.047241461
0.015488019
0
0
0
1.8326769
1.6354727
0.82219779
1.7444209
1.6154189
0
0.25833358
1.001131
1.1681375
0
0
0
0
0.0057637076
0.042551156
0.37866384
0.86847331
0.57900243
0.24746369
0.84688012
0.55860994
0.0030222369
0.00068221675
0.010358107
0.0023246361
0.49135896
0.32577776
0
0
0.74089539
0.21073479
0
0
0
0.11153857
0.0746693
0
0
0
0
1000
1000
1000
1000
1000
1000
1000
1000
1000
1000
0.37296447
1000
1000
1000
0
0
0
0
0
0
0
0
0
0.17137956
0.0050752123
0
0
0
0
0
0
0
0
0
0
2.2401227
0.15502955
1.715424
0.25501196
2.1973849
0.016517629
1.7733536
0.38232553
0
0
0
0.17565514
0.017331524
0
0
0.067976275
0
0
0
0
0
0
1000
1000
1000
1000
1000
1000
1000
1000
0
0
0
0.21543052
0.15014041
1.4260965
0.42984953
0.033761599
0.0084129235
0
1.4911887
0.48306537
1000
1000
1000
1000
1000
1000
1000
1000
1000
1000
0.32600629
1000
1000
0.35194405
1000
1000
1000
1000
1000
1000
1000
1000
0
0
0
0
0
0
0
0
0
0
0
0
0
0
0
0
0
0
0
0
0
0
0
0
0
0
0.09054965
0.61709003
1.0836088
0.23828146
0
0
0
0
0
0
0
0.019849218
9.3396366e-05
0.49065594
0
0.10219465
0
0
0
0
0.00058556345
0
0.015045148
0.092574546
0.086936218
0.0027859265
0.028875315
0
0
0
0
0
0
0
0
2.0332287
2.086366
1.9311381
1.4065811
0.910167
0.23191981
1.8741724
2.0816495
1.9664967
1.4114178
0
0
0.30144471
0.046164854
0.83269465
1.3182477
0
0
0
0
0
0
0
0
0.017610713
0.077497708
0.11745345
0.50201662
0.11529734
1.1350623
1.1368114
0.78614706
0.29066007
0.074424994
0.11900869
1.1291476
1.209018
0.26781649
0.85041382
0
0
0
0.017526178
0
0.0038732838
0.66461538
0.16178208
0
0
0
0.63501985
0.014470999
0.16778589
0
0
0
0
0.0056863805
0.0012538913
0
0.14471381
0.035730891
0
0
0
0
0
0
1.6129207
1.5643681
1000
0.58028499
1000
0.55282896
0.9448355
)

)


// ************************************************************************* //
