/*--------------------------------*- C++ -*----------------------------------*\
  =========                 |
  \\      /  F ield         | OpenFOAM: The Open Source CFD Toolbox
   \\    /   O peration     | Website:  https://openfoam.org
    \\  /    A nd           | Version:  8
     \\/     M anipulation  |
\*---------------------------------------------------------------------------*/
/*   Windows 32 and 64 bit porting by blueCAPE: http://www.bluecape.com.pt   *\
|  Based on Windows porting (2.0.x v4) by Symscape: http://www.symscape.com   |
\*---------------------------------------------------------------------------*/
FoamFile
{
    version     2.0;
    format      ascii;
    class       scalarListList;
    location    "constant/vegetation";
    object      solarLoadFineFaces;
}
// * * * * * * * * * * * * * * * * * * * * * * * * * * * * * * * * * * * * * //


5
(

508
(
717.08284
717.08284
717.08284
717.08284
717.08284
717.08284
717.08284
717.08284
286.44817
717.08284
717.08284
717.08284
717.08284
717.08284
717.08284
717.08284
717.08284
717.08284
717.08284
717.08284
717.08284
717.08284
717.08284
717.08284
238.24322
111.01216
717.08284
717.08284
717.08284
717.08284
717.08284
717.08284
717.08284
717.08284
717.08284
717.08284
717.08284
228.48199
717.08284
717.08284
238.24322
53.045168
53.045168
717.08284
717.08284
717.08284
717.08284
717.08284
717.08284
717.08284
717.08284
495.26683
717.08284
717.08284
717.08284
717.08284
717.08284
717.08284
717.08284
717.08284
717.08284
53.045168
53.045168
238.24322
111.01216
111.01216
111.01216
717.08284
397.45244
717.08284
717.08284
717.08284
717.08284
717.08284
717.08284
717.08284
717.08284
717.08284
717.08284
717.08284
717.08284
717.08284
717.08284
717.08284
717.08284
717.08284
717.08284
717.08284
717.08284
717.08284
717.08284
717.08284
717.08284
717.08284
717.08284
717.08284
717.08284
717.08284
717.08284
717.08284
717.08284
717.08284
717.08284
717.08284
717.08284
717.08284
717.08284
717.08284
717.08284
717.08284
717.08284
80.639504
80.639504
80.639504
80.639504
80.639504
80.639504
80.639504
80.639504
80.639504
80.639504
80.639504
80.639504
80.639504
80.639504
80.639504
80.639504
80.639504
80.639504
80.639504
80.639504
80.639504
80.639504
80.639504
80.639504
80.639504
80.639504
80.639504
80.639504
80.639504
80.639504
80.639504
80.639504
80.639504
80.639504
80.639504
80.639504
80.639504
80.639504
80.639504
80.639504
80.639504
80.639504
80.639504
80.639504
80.639504
80.639504
80.639504
80.639504
80.639504
80.639504
80.639504
80.639504
80.639504
80.639504
80.639504
80.639504
80.639504
80.639504
80.639504
80.639504
80.639504
80.639504
80.639504
80.639504
80.639504
80.639504
80.639504
80.639504
80.639504
80.639504
80.639504
80.639504
80.639504
80.639504
80.639504
80.639504
80.639504
80.639504
80.639504
80.639504
80.639504
80.639504
80.639504
80.639504
80.639504
80.639504
80.639504
80.639504
80.639504
80.639504
80.639504
80.639504
80.639504
80.639504
80.639504
80.639504
80.639504
80.639504
80.639504
80.639504
80.639504
80.639504
80.639504
80.639504
80.639504
80.639504
80.639504
80.639504
80.639504
80.639504
80.639504
80.639504
80.639504
80.639504
80.639504
80.639504
80.639504
80.639504
80.639504
80.639504
80.639504
80.639504
80.639504
80.639504
80.639504
80.639504
80.639504
80.639504
80.639504
80.639504
80.639504
80.639504
80.639504
80.639504
80.639504
80.639504
80.639504
80.639504
80.639504
80.639504
80.639504
80.639504
80.639504
80.639504
80.639504
80.639504
80.639504
80.639504
80.639504
80.639504
80.639504
80.639504
80.639504
80.639504
80.639504
80.639504
80.639504
80.639504
80.639504
80.639504
80.639504
80.639504
80.639504
80.639504
80.639504
80.639504
80.639504
80.639504
80.639504
80.639504
80.639504
80.639504
80.639504
80.639504
80.639504
80.639504
80.639504
80.639504
80.639504
80.639504
80.639504
80.639504
80.639504
80.639504
80.639504
80.639504
80.639504
80.639504
80.639504
80.639504
80.639504
80.639504
80.639504
80.639504
80.639504
80.639504
80.639504
80.639504
80.639504
80.639504
80.639504
80.639504
80.639504
80.639504
80.639504
80.639504
80.639504
80.639504
80.639504
80.639504
80.639504
80.639504
80.639504
80.639504
80.639504
80.639504
80.639504
80.639504
80.639504
80.639504
80.639504
80.639504
80.639504
80.639504
80.639504
80.639504
80.639504
80.639504
80.639504
80.639504
80.639504
80.639504
80.639504
80.639504
80.639504
80.639504
80.639504
80.639504
80.639504
80.639504
80.639504
80.639504
80.639504
80.639504
80.639504
80.639504
80.639504
80.639504
80.639504
80.639504
80.639504
80.639504
80.639504
80.639504
80.639504
80.639504
80.639504
80.639504
80.639504
80.639504
80.639504
80.639504
80.639504
80.639504
80.639504
80.639504
80.639504
80.639504
80.639504
80.639504
80.639504
80.639504
80.639504
80.639504
80.639504
80.639504
80.639504
80.639504
80.639504
80.639504
80.639504
80.639504
80.639504
80.639504
80.639504
80.639504
80.639504
80.639504
80.639504
80.639504
80.639504
80.639504
80.639504
80.639504
80.639504
80.639504
80.639504
80.639504
80.639504
80.639504
80.639504
80.639504
80.639504
80.639504
80.639504
80.639504
80.639504
80.639504
80.639504
80.639504
80.639504
80.639504
63.040544
0
0
0
0
0
30.852354
15.322953
87.046175
0.98991772
7.9721677
62.884999
0
135.38541
0
0
98.244312
0
0
0
0
0
0
0
0
0
0
0
0
293.65259
189.0108
333.24053
633.62501
472.94824
377.96031
249.20141
27.448306
131.15834
131.77889
222.50081
207.75065
157.41565
248.17832
269.26321
299.32706
416.3427
0
17.913555
0
86.350002
93.571718
112.46343
1.447176
187.44757
86.245693
17.442436
39.121432
7.2323157
0
0
82.146144
0
0
0
0
0
0
0
0
0
0
474.23987
364.62261
454.92698
374.9875
488.85126
0
0
0
2.9502358
535.1774
373.30391
649.55652
708.96232
545.66742
)


508
(
585.76158
585.76158
585.76158
585.76158
585.76158
70.841781
280.57069
585.76158
70.841781
585.76158
585.76158
75.337947
101.08977
70.841781
107.01309
70.841781
585.76158
585.76158
585.76158
585.76158
585.76158
585.76158
585.76158
585.76158
359.85937
62.632077
75.337947
75.337947
75.337947
167.28012
585.76158
585.76158
107.01309
101.16511
585.76158
101.16511
280.57069
101.08977
585.76158
585.76158
585.76158
48.077258
48.077258
585.76158
585.76158
585.76158
585.76158
585.76158
585.76158
585.76158
101.16511
101.16511
585.76158
585.76158
585.76158
585.76158
585.76158
585.76158
101.08977
101.16511
101.08977
48.077258
48.077258
359.85937
62.632077
62.632077
62.632077
585.76158
280.57069
585.76158
585.76158
585.76158
585.76158
585.76158
585.76158
585.76158
585.76158
585.76158
585.76158
585.76158
585.76158
585.76158
585.76158
585.76158
585.76158
585.76158
585.76158
585.76158
585.76158
585.76158
585.76158
585.76158
585.76158
585.76158
585.76158
585.76158
585.76158
585.76158
585.76158
585.76158
585.76158
585.76158
585.76158
585.76158
585.76158
101.16511
585.76158
585.76158
585.76158
585.76158
585.76158
227.80796
227.80796
227.80796
227.80796
227.80796
227.80796
227.80796
227.80796
227.80796
227.80796
227.80796
227.80796
227.80796
227.80796
227.80796
227.80796
227.80796
227.80796
227.80796
227.80796
227.80796
227.80796
227.80796
227.80796
227.80796
227.80796
227.80796
227.80796
227.80796
227.80796
227.80796
227.80796
227.80796
227.80796
227.80796
227.80796
227.80796
227.80796
227.80796
227.80796
227.80796
227.80796
227.80796
227.80796
227.80796
227.80796
227.80796
227.80796
227.80796
227.80796
227.80796
227.80796
227.80796
227.80796
227.80796
227.80796
227.80796
227.80796
227.80796
227.80796
227.80796
227.80796
227.80796
227.80796
227.80796
227.80796
227.80796
227.80796
227.80796
227.80796
227.80796
227.80796
227.80796
227.80796
227.80796
227.80796
227.80796
227.80796
227.80796
227.80796
227.80796
227.80796
227.80796
227.80796
227.80796
227.80796
227.80796
227.80796
227.80796
227.80796
227.80796
227.80796
227.80796
227.80796
227.80796
227.80796
227.80796
227.80796
227.80796
227.80796
227.80796
227.80796
227.80796
227.80796
227.80796
227.80796
227.80796
227.80796
227.80796
227.80796
227.80796
227.80796
227.80796
227.80796
227.80796
227.80796
227.80796
227.80796
227.80796
227.80796
227.80796
227.80796
227.80796
227.80796
227.80796
227.80796
227.80796
227.80796
227.80796
227.80796
227.80796
227.80796
227.80796
227.80796
227.80796
227.80796
227.80796
227.80796
227.80796
227.80796
227.80796
227.80796
227.80796
227.80796
227.80796
227.80796
227.80796
227.80796
227.80796
227.80796
227.80796
227.80796
227.80796
227.80796
227.80796
227.80796
227.80796
227.80796
227.80796
227.80796
227.80796
227.80796
227.80796
227.80796
227.80796
227.80796
227.80796
227.80796
227.80796
227.80796
227.80796
227.80796
227.80796
227.80796
227.80796
227.80796
227.80796
227.80796
227.80796
227.80796
227.80796
227.80796
227.80796
227.80796
227.80796
227.80796
227.80796
227.80796
227.80796
227.80796
227.80796
227.80796
227.80796
227.80796
227.80796
227.80796
227.80796
227.80796
227.80796
227.80796
227.80796
227.80796
227.80796
227.80796
227.80796
227.80796
227.80796
227.80796
227.80796
227.80796
227.80796
227.80796
227.80796
227.80796
227.80796
227.80796
227.80796
227.80796
227.80796
227.80796
227.80796
227.80796
227.80796
227.80796
227.80796
227.80796
227.80796
227.80796
227.80796
227.80796
227.80796
227.80796
227.80796
227.80796
227.80796
227.80796
227.80796
227.80796
227.80796
227.80796
227.80796
227.80796
227.80796
227.80796
227.80796
227.80796
227.80796
227.80796
227.80796
227.80796
227.80796
227.80796
227.80796
227.80796
227.80796
227.80796
227.80796
227.80796
227.80796
227.80796
227.80796
227.80796
227.80796
227.80796
227.80796
227.80796
227.80796
227.80796
227.80796
227.80796
227.80796
227.80796
227.80796
227.80796
227.80796
227.80796
227.80796
227.80796
227.80796
227.80796
227.80796
227.80796
227.80796
227.80796
227.80796
227.80796
227.80796
227.80796
227.80796
227.80796
227.80796
227.80796
227.80796
227.80796
227.80796
227.80796
227.80796
227.80796
227.80796
227.80796
227.80796
227.80796
227.80796
227.80796
227.80796
227.80796
227.80796
227.80796
227.80796
227.80796
227.80796
227.80796
0
0
0
0
0
0
0
0
0
0
0
0
0
0
0
0
7.0333284
0
0
0
0
0
0
0
0
0
0
0
0
104.93808
129.73979
252.74343
475.17689
358.50787
238.77869
106.7669
87.402396
0
0
91.455524
79.383246
16.879588
66.991757
74.060129
115.19459
298.26555
0
0
0
0
0
0
0
4.0503313
0
0
0
0
0
0
16.255317
0
0
0
0
0
0
0
0
0
0
284.57952
205.46078
323.80373
215.54722
301.08711
0
0
0
0
332.92919
171.236
489.13126
536.99485
405.0599
)


508
(
536.2201
536.2201
536.2201
536.2201
536.2201
81.428132
142.84248
536.2201
81.428132
536.2201
536.2201
57.72834
536.2201
81.428132
46.603937
81.428132
536.2201
536.2201
114.37249
536.2201
536.2201
536.2201
536.2201
536.2201
536.2201
58.525925
57.72834
57.72834
57.72834
58.244363
114.37249
81.428132
46.603937
76.656754
130.46374
76.656754
142.84248
536.2201
536.2201
536.2201
536.2201
93.367042
93.367042
536.2201
536.2201
536.2201
536.2201
536.2201
536.2201
536.2201
76.656754
76.656754
142.84248
536.2201
142.84248
536.2201
536.2201
536.2201
175.90986
76.656754
175.90986
93.367042
93.367042
462.53144
58.525925
58.525925
58.525925
536.2201
142.84248
536.2201
536.2201
536.2201
114.37249
127.22644
127.22644
536.2201
536.2201
536.2201
536.2201
536.2201
536.2201
81.428132
114.37249
127.22644
127.22644
130.46374
130.46374
536.2201
536.2201
536.2201
536.2201
536.2201
536.2201
536.2201
536.2201
536.2201
536.2201
536.2201
536.2201
536.2201
46.603937
46.603937
58.244363
58.244363
58.244363
76.656754
76.656754
76.656754
76.656754
130.46374
130.46374
381.92334
381.92334
381.92334
381.92334
381.92334
381.92334
381.92334
381.92334
381.92334
381.92334
381.92334
381.92334
60.092071
47.533242
67.461725
45.135474
381.92334
73.106999
102.56079
107.05333
381.92334
381.92334
381.92334
381.92334
381.92334
381.92334
381.92334
381.92334
381.92334
381.92334
381.92334
381.92334
381.92334
381.92334
381.92334
381.92334
381.92334
381.92334
381.92334
381.92334
381.92334
381.92334
381.92334
381.92334
381.92334
381.92334
381.92334
381.92334
381.92334
381.92334
381.92334
381.92334
381.92334
381.92334
381.92334
381.92334
381.92334
381.92334
381.92334
381.92334
381.92334
381.92334
381.92334
381.92334
381.92334
381.92334
381.92334
381.92334
381.92334
381.92334
381.92334
381.92334
381.92334
381.92334
381.92334
381.92334
381.92334
381.92334
381.92334
381.92334
381.92334
381.92334
381.92334
381.92334
381.92334
381.92334
381.92334
381.92334
381.92334
381.92334
381.92334
381.92334
381.92334
79.302956
381.92334
64.617121
381.92334
381.92334
381.92334
381.92334
381.92334
381.92334
381.92334
381.92334
381.92334
381.92334
381.92334
381.92334
381.92334
381.92334
381.92334
381.92334
381.92334
381.92334
381.92334
381.92334
381.92334
381.92334
381.92334
381.92334
381.92334
381.92334
381.92334
381.92334
381.92334
381.92334
381.92334
381.92334
381.92334
381.92334
381.92334
381.92334
381.92334
381.92334
381.92334
381.92334
381.92334
381.92334
381.92334
381.92334
381.92334
381.92334
381.92334
381.92334
381.92334
381.92334
381.92334
381.92334
381.92334
381.92334
381.92334
381.92334
381.92334
381.92334
381.92334
381.92334
381.92334
381.92334
381.92334
381.92334
381.92334
381.92334
381.92334
381.92334
381.92334
381.92334
381.92334
381.92334
381.92334
85.76169
76.826214
103.96492
39.424325
101.89355
381.92334
59.507348
44.166899
381.92334
381.92334
53.044347
140.44773
381.92334
80.873751
381.92334
381.92334
381.92334
381.92334
381.92334
381.92334
381.92334
381.92334
381.92334
381.92334
381.92334
381.92334
381.92334
381.92334
381.92334
381.92334
381.92334
381.92334
381.92334
381.92334
381.92334
381.92334
381.92334
381.92334
381.92334
381.92334
381.92334
381.92334
381.92334
381.92334
381.92334
381.92334
381.92334
381.92334
381.92334
381.92334
381.92334
381.92334
381.92334
381.92334
381.92334
381.92334
381.92334
381.92334
381.92334
381.92334
381.92334
381.92334
381.92334
381.92334
381.92334
381.92334
381.92334
381.92334
381.92334
381.92334
381.92334
381.92334
381.92334
381.92334
381.92334
381.92334
381.92334
381.92334
381.92334
381.92334
381.92334
381.92334
381.92334
381.92334
381.92334
381.92334
381.92334
381.92334
381.92334
381.92334
381.92334
381.92334
381.92334
381.92334
381.92334
381.92334
381.92334
381.92334
381.92334
381.92334
381.92334
381.92334
381.92334
381.92334
381.92334
381.92334
381.92334
381.92334
381.92334
381.92334
381.92334
381.92334
381.92334
381.92334
381.92334
381.92334
381.92334
381.92334
381.92334
381.92334
381.92334
381.92334
381.92334
381.92334
381.92334
381.92334
381.92334
381.92334
381.92334
381.92334
381.92334
381.92334
381.92334
381.92334
381.92334
381.92334
381.92334
381.92334
381.92334
381.92334
381.92334
381.92334
381.92334
0
0
0
0
0
0
0
0
0
0
0
0
0
0
0
0
85.828049
0
0
0
0
0
0
0
0
0
0
0
0
26.269631
102.9424
219.53423
391.24727
304.92019
150.08676
0
167.7014
0
0
17.707774
25.84573
107.33883
50.66746
51.059788
22.460029
216.18242
0
0
0
0
0
0
0
83.4873
0
0
0
0
0
0
94.662569
0
0
0
0
0
0
0
0
0
0
151.61457
78.824091
233.62004
89.777111
162.4844
0
0
0
0
189.82683
10.292489
394.86525
443.01205
316.49153
)


508
(
411.8157
411.8157
411.8157
411.8157
411.8157
411.8157
76.25328
411.8157
411.8157
411.8157
411.8157
55.609182
411.8157
158.75683
65.082938
411.8157
411.8157
411.8157
53.01541
124.68239
411.8157
411.8157
411.8157
411.8157
411.8157
50.958482
55.609182
55.609182
55.609182
46.664669
53.01541
158.75683
65.082938
85.920653
411.8157
85.920653
76.25328
411.8157
411.8157
411.8157
411.8157
35.966697
35.966697
411.8157
411.8157
411.8157
411.8157
411.8157
411.8157
411.8157
85.920653
85.920653
76.25328
124.68239
76.25328
411.8157
411.8157
411.8157
411.8157
411.8157
411.8157
35.966697
411.8157
411.8157
50.958482
50.958482
50.958482
411.8157
76.25328
411.8157
411.8157
411.8157
53.01541
52.560476
52.560476
411.8157
411.8157
411.8157
411.8157
411.8157
411.8157
158.75683
53.01541
52.560476
52.560476
411.8157
411.8157
411.8157
411.8157
411.8157
411.8157
124.68239
124.68239
396.81258
411.8157
411.8157
411.8157
411.8157
411.8157
411.8157
65.082938
65.082938
46.664669
46.664669
46.664669
85.920653
85.920653
85.920653
85.920653
228.76456
228.76456
471.50949
471.50949
471.50949
471.50949
142.72652
471.50949
471.50949
139.88964
471.50949
471.50949
471.50949
471.50949
50.443386
71.392344
82.422852
48.164779
185.88397
68.773475
75.526753
165.00887
471.50949
471.50949
471.50949
471.50949
471.50949
471.50949
471.50949
471.50949
471.50949
471.50949
156.3143
471.50949
471.50949
471.50949
471.50949
471.50949
471.50949
471.50949
471.50949
471.50949
471.50949
471.50949
471.50949
471.50949
471.50949
471.50949
471.50949
78.426896
110.01132
471.50949
471.50949
471.50949
141.09135
471.50949
471.50949
471.50949
471.50949
471.50949
471.50949
471.50949
471.50949
471.50949
471.50949
471.50949
471.50949
471.50949
471.50949
471.50949
471.50949
471.50949
471.50949
471.50949
471.50949
471.50949
471.50949
471.50949
471.50949
471.50949
471.50949
471.50949
471.50949
471.50949
471.50949
471.50949
79.61727
471.50949
471.50949
67.775673
471.50949
471.50949
471.50949
471.50949
53.845844
172.07791
471.50949
51.059945
471.50949
471.50949
471.50949
471.50949
471.50949
471.50949
471.50949
471.50949
471.50949
471.50949
471.50949
471.50949
471.50949
471.50949
471.50949
471.50949
471.50949
471.50949
471.50949
471.50949
471.50949
471.50949
471.50949
87.850801
471.50949
471.50949
471.50949
59.353787
471.50949
471.50949
471.50949
471.50949
471.50949
471.50949
471.50949
471.50949
471.50949
471.50949
471.50949
471.50949
471.50949
471.50949
471.50949
471.50949
471.50949
148.92944
71.860298
471.50949
471.50949
471.50949
471.50949
66.201951
149.55533
471.50949
471.50949
471.50949
471.50949
471.50949
471.50949
471.50949
471.50949
471.50949
471.50949
471.50949
471.50949
471.50949
471.50949
471.50949
471.50949
471.50949
471.50949
471.50949
471.50949
55.458547
49.108097
198.4047
63.207093
100.78082
471.50949
47.64009
50.171565
471.50949
471.50949
62.210285
83.222249
471.50949
152.56283
471.50949
471.50949
471.50949
471.50949
471.50949
471.50949
471.50949
471.50949
471.50949
471.50949
471.50949
471.50949
471.50949
471.50949
471.50949
471.50949
471.50949
471.50949
471.50949
471.50949
471.50949
471.50949
471.50949
471.50949
471.50949
471.50949
471.50949
471.50949
122.98486
471.50949
471.50949
471.50949
471.50949
471.50949
471.50949
471.50949
471.50949
471.50949
471.50949
471.50949
471.50949
471.50949
471.50949
471.50949
471.50949
471.50949
471.50949
471.50949
471.50949
471.50949
471.50949
471.50949
471.50949
471.50949
471.50949
471.50949
471.50949
471.50949
471.50949
471.50949
471.50949
471.50949
112.5681
149.13479
471.50949
471.50949
471.50949
60.930802
77.406119
107.22137
471.50949
471.50949
471.50949
471.50949
471.50949
471.50949
105.54147
471.50949
471.50949
471.50949
471.50949
471.50949
471.50949
471.50949
471.50949
471.50949
471.50949
471.50949
471.50949
471.50949
471.50949
471.50949
471.50949
471.50949
471.50949
471.50949
471.50949
471.50949
471.50949
471.50949
471.50949
471.50949
471.50949
471.50949
471.50949
471.50949
471.50949
471.50949
471.50949
471.50949
471.50949
471.50949
471.50949
471.50949
471.50949
471.50949
471.50949
471.50949
471.50949
471.50949
471.50949
471.50949
471.50949
471.50949
471.50949
471.50949
471.50949
471.50949
471.50949
0
0
0
0
0
0
0
0
0
1.7069598
0
0
0
0
0
0
0
0
0
0
0
0
0
0
0
0
0
0
0
0
72.878601
165.03336
257.11214
216.49045
50.983195
0
0
0
0
0
0
0
0
0
0
96.086331
0
0
0
0
0
0
0
0
0
0
0
0
0
0
0
0
0
0
0
0
0
0
0
0
0
0
0
103.8135
0
0
0
0
0
0
24.471566
0
240.79084
287.02542
176.99233
)


508
(
0
0
0
0
284.42858
0
0
0
0
284.42858
284.42858
0
0
0
0
0
0
0
0
0
0
0
0
0
0
0
0
0
0
0
0
0
0
0
0
0
0
0
284.42858
284.42858
284.42858
0
0
0
0
0
0
0
0
0
0
0
0
0
0
0
0
0
0
0
0
0
0
0
0
0
0
0
0
0
0
0
0
0
0
0
0
0
0
0
0
0
0
0
0
0
0
0
0
0
0
0
0
0
0
0
0
0
0
0
0
0
0
0
0
0
0
0
0
0
0
524.72754
524.72754
524.72754
524.72754
0
0
0
0
0
0
0
0
0
0
0
0
0
0
0
0
524.72754
524.72754
524.72754
524.72754
524.72754
524.72754
524.72754
524.72754
524.72754
524.72754
209.20136
524.72754
524.72754
524.72754
524.72754
524.72754
524.72754
524.72754
524.72754
524.72754
524.72754
524.72754
524.72754
524.72754
83.948394
102.24853
230.59925
91.694119
104.3197
524.72754
524.72754
524.72754
163.16169
524.72754
524.72754
524.72754
524.72754
524.72754
524.72754
524.72754
524.72754
524.72754
524.72754
524.72754
524.72754
524.72754
524.72754
524.72754
524.72754
524.72754
524.72754
524.72754
524.72754
250.13074
524.72754
524.72754
524.72754
524.72754
524.72754
524.72754
524.72754
524.72754
524.72754
524.72754
0
0
0
0
0
0
0
0
0
0
524.72754
0
0
0
524.72754
524.72754
524.72754
524.72754
524.72754
524.72754
524.72754
524.72754
524.72754
524.72754
524.72754
524.72754
524.72754
524.72754
524.72754
524.72754
524.72754
524.72754
524.72754
524.72754
524.72754
55.854855
524.72754
94.391889
524.72754
58.293713
524.72754
89.079172
524.72754
524.72754
524.72754
524.72754
524.72754
524.72754
524.72754
524.72754
524.72754
524.72754
524.72754
524.72754
524.72754
524.72754
524.72754
0
0
0
0
0
0
0
0
524.72754
524.72754
524.72754
524.72754
524.72754
126.06311
524.72754
524.72754
524.72754
524.72754
118.11875
524.72754
0
0
0
0
0
0
0
0
0
0
524.72754
0
0
524.72754
0
0
0
0
0
0
0
0
524.72754
524.72754
524.72754
524.72754
524.72754
524.72754
524.72754
524.72754
524.72754
524.72754
524.72754
524.72754
524.72754
524.72754
524.72754
524.72754
524.72754
524.72754
524.72754
524.72754
524.72754
524.72754
524.72754
524.72754
524.72754
524.72754
524.72754
524.72754
177.55321
524.72754
524.72754
524.72754
524.72754
524.72754
524.72754
524.72754
524.72754
524.72754
524.72754
524.72754
524.72754
524.72754
524.72754
524.72754
524.72754
524.72754
524.72754
524.72754
524.72754
524.72754
524.72754
524.72754
524.72754
524.72754
524.72754
524.72754
524.72754
524.72754
524.72754
524.72754
524.72754
68.693216
65.138329
76.076624
128.54744
211.18027
524.72754
80.536198
65.44628
73.433663
127.9272
524.72754
524.72754
524.72754
524.72754
524.72754
140.41909
524.72754
524.72754
524.72754
524.72754
524.72754
524.72754
524.72754
524.72754
524.72754
524.72754
524.72754
524.72754
524.72754
168.64853
168.35381
524.72754
524.72754
524.72754
524.72754
169.64899
156.62606
524.72754
524.72754
524.72754
524.72754
524.72754
524.72754
524.72754
524.72754
524.72754
524.72754
524.72754
524.72754
524.72754
524.72754
524.72754
524.72754
524.72754
524.72754
524.72754
524.72754
524.72754
524.72754
524.72754
524.72754
524.72754
524.72754
524.72754
524.72754
524.72754
524.72754
524.72754
0
0
0
0
0
0
0
0
0
25.133243
0
0
0
0
0
0
0
0
0
0
0
0
0
0
0
0
0
0
0
0
53.273112
118.38602
130.68623
135.84028
0
0
0
0
0
0
0
0
0
0
0
0
0
0
0
0
0
0
0
0
0
0
0
0
0
0
0
0
0
0
0
0
0
0
0
0
0
0
0
0
0
0
0
0
0
0
0
0
88.616534
135.5842
38.417986
)

)


// ************************************************************************* //
