/*--------------------------------*- C++ -*----------------------------------*\
  =========                 |
  \\      /  F ield         | OpenFOAM: The Open Source CFD Toolbox
   \\    /   O peration     | Website:  https://openfoam.org
    \\  /    A nd           | Version:  8
     \\/     M anipulation  |
\*---------------------------------------------------------------------------*/
/*   Windows 32 and 64 bit porting by blueCAPE: http://www.bluecape.com.pt   *\
|  Based on Windows porting (2.0.x v4) by Symscape: http://www.symscape.com   |
\*---------------------------------------------------------------------------*/
FoamFile
{
    version     2.0;
    format      ascii;
    class       polyBoundaryMesh;
    location    "constant/Building/polyMesh";
    object      boundary;
}
// * * * * * * * * * * * * * * * * * * * * * * * * * * * * * * * * * * * * * //

7
(
    sides
    {
        type            wall;
        inGroups        List<word> 1(wall);
        nFaces          0;
        startFace       79294;
    }
    buildings_to_air
    {
        type            mappedWall;
        inGroups        List<word> 
2
(
wall
mappedPatch
)
;
        nFaces          3336;
        startFace       79294;
        sampleMode      nearestPatchFace;
        sampleRegion    air;
        samplePatch     Building;
    }
    interior
    {
        type            patch;
        nFaces          3336;
        startFace       82630;
    }
    procBoundary10to6
    {
        type            processor;
        inGroups        List<word> 1(processor);
        nFaces          110;
        startFace       85966;
        matchTolerance  0.0001;
        myProcNo        10;
        neighbProcNo    6;
    }
    procBoundary10to8
    {
        type            processor;
        inGroups        List<word> 1(processor);
        nFaces          380;
        startFace       86076;
        matchTolerance  0.0001;
        myProcNo        10;
        neighbProcNo    8;
    }
    procBoundary10to9
    {
        type            processor;
        inGroups        List<word> 1(processor);
        nFaces          500;
        startFace       86456;
        matchTolerance  0.0001;
        myProcNo        10;
        neighbProcNo    9;
    }
    procBoundary10to11
    {
        type            processor;
        inGroups        List<word> 1(processor);
        nFaces          550;
        startFace       86956;
        matchTolerance  0.0001;
        myProcNo        10;
        neighbProcNo    11;
    }
)

// ************************************************************************* //
