/*--------------------------------*- C++ -*----------------------------------*\
  =========                 |
  \\      /  F ield         | OpenFOAM: The Open Source CFD Toolbox
   \\    /   O peration     | Website:  https://openfoam.org
    \\  /    A nd           | Version:  8
     \\/     M anipulation  |
\*---------------------------------------------------------------------------*/
/*   Windows 32 and 64 bit porting by blueCAPE: http://www.bluecape.com.pt   *\
|  Based on Windows porting (2.0.x v4) by Symscape: http://www.symscape.com   |
\*---------------------------------------------------------------------------*/
FoamFile
{
    version     2.0;
    format      ascii;
    class       scalarListList;
    location    "constant/air";
    object      divqrsw;
}
// * * * * * * * * * * * * * * * * * * * * * * * * * * * * * * * * * * * * * //


5
(

6026
(
0
0
-187.31459
0
0
0
0
0
-195.61083
0
0
0
-158.98763
0
-175.20393
0
0
0
0
0
0
0
-203.19542
0
0
-22.052066
-193.59063
0
0
0
0
0
-19.50926
-175.67567
0
0
0
-190.67979
0
0
0
0
0
0
0
0
-80.819605
0
0
0
-133.50157
-85.570584
-52.901477
-71.230317
0
-41.583981
0
0
0
0
-108.31644
0
0
0
-96.324102
0
0
0
0
0
0
0
0
0
0
0
0
0
0
-59.904346
0
0
0
-122.82358
-172.51408
-184.09394
-42.759295
0
-44.238189
0
0
0
0
0
0
0
0
0
0
-192.23097
-159.43667
-131.11055
0
0
-39.822559
-98.605056
0
-53.086388
-37.215211
0
-25.022233
-90.243632
0
0
0
0
0
-206.27128
0
0
0
0
0
0
0
0
0
0
-106.66773
0
0
-174.00791
-126.98577
0
0
0
0
0
0
0
0
0
0
0
0
0
0
-123.81687
0
0
0
0
0
0
0
0
0
-153.6512
-141.22542
0
-78.277754
0
0
0
0
-111.16044
0
-166.03427
-83.969269
-53.872
-70.768732
-189.17812
-110.91747
-142.38485
0
0
0
-77.271444
0
0
0
0
0
0
-65.25179
0
-111.01366
0
0
0
-41.918286
-53.336335
0
0
0
0
0
0
-81.307459
-171.01549
-128.57943
-114.52587
-122.83945
0
-55.353035
-67.570332
0
0
0
-60.591984
0
-42.422484
-57.827114
0
-81.956082
0
0
0
0
0
-145.1063
0
0
0
0
0
0
0
0
0
0
-122.37638
0
0
-136.82495
0
0
0
-159.71634
-118.69463
0
0
0
0
0
-136.61279
0
0
-96.650956
0
0
0
0
0
0
0
0
-50.637555
-118.99234
-59.481479
0
0
0
-117.53469
0
-57.245811
-178.97319
-120.86153
-125.49435
-138.51107
-60.481435
-107.13028
-103.51846
-57.166379
-101.16232
-44.254572
-51.198414
-31.012407
0
-15.644386
-21.945734
-48.595601
-20.614358
-27.457446
0
0
0
0
0
0
0
0
0
-179.60734
0
0
0
0
0
0
0
0
0
0
0
0
-95.692299
0
-174.85185
-152.60573
-140.97127
-185.38271
0
-142.89917
-192.74051
0
0
0
-162.76096
-168.59037
-171.27859
-181.74903
-174.39283
-149.22817
-176.8054
-26.811454
0
-28.139521
0
0
0
0
0
0
0
-183.5397
-185.66659
-195.50839
-183.51576
-182.4913
-186.08078
-182.03019
0
0
0
0
0
-19.820781
-23.67492
0
-16.239362
-22.61489
-20.892603
0
-83.578563
-136.4549
-142.85548
-127.20928
-117.82427
-106.92178
-103.58207
-130.55862
-161.07082
-186.25822
-139.30678
-171.50364
-119.64426
-150.023
0
0
0
0
0
0
0
-146.96581
-176.02249
-194.17868
-186.12138
-197.72917
-166.98681
-155.33632
0
0
0
0
0
0
0
0
0
0
0
0
0
0
-43.391675
0
-52.462239
-62.237021
-24.501193
-45.992693
0
-188.9415
-151.12134
-137.36867
-131.0834
-192.79274
-140.79274
-189.53879
0
0
0
0
0
0
0
0
0
0
0
0
0
0
0
0
0
0
0
0
0
0
0
0
0
0
0
0
-37.544001
-13.465163
-25.265733
-28.414612
-22.26874
-40.413152
-16.570859
-109.64337
0
0
0
-186.93996
-131.62713
-91.320939
0
0
0
0
0
0
0
0
0
0
0
0
0
0
0
0
0
0
0
0
0
0
0
0
0
0
0
0
0
-224.95225
-82.990144
-93.304691
-101.67875
-196.0965
-219.75197
-98.270184
0
0
0
0
0
0
0
0
0
0
0
0
0
0
0
0
0
0
0
0
0
0
0
0
0
0
0
0
0
0
0
0
0
0
0
0
0
0
0
0
0
0
-70.661715
-92.736242
-79.607442
0
0
0
-131.97465
-148.32569
-147.45175
-96.942481
-110.23304
-154.68111
-120.67833
-99.881139
-100.97209
-94.786535
-76.425095
-90.473404
-83.588365
-112.70906
-71.336614
-56.881094
-67.289634
-52.134249
-70.890538
-65.292284
-57.560841
-59.521215
-61.972959
-77.925658
-64.282128
-55.762075
-66.710672
-69.767513
0
0
0
0
0
0
0
-36.433054
-44.342423
-43.438309
-32.313949
-33.547067
-34.941448
-46.672662
0
-134.62265
0
0
-110.46838
-104.40404
0
0
0
0
0
0
0
0
-112.54456
-110.15582
-126.6163
0
0
0
0
0
0
0
0
0
0
0
0
0
0
0
0
0
0
0
0
0
0
0
0
0
0
0
0
0
0
0
0
0
0
0
0
0
0
0
0
0
-147.37518
-147.39549
-98.94438
-149.47062
-124.03763
-168.36906
-124.03818
-179.16294
-185.86865
-181.40912
-164.5151
-189.38341
-178.25719
-34.337685
-48.781415
-39.202518
0
0
0
-48.582605
0
-37.344292
0
0
0
0
0
0
0
0
0
0
0
0
0
0
0
0
0
0
0
0
0
0
0
0
0
0
0
0
-182.08713
-193.90549
-175.60074
-184.81493
-185.47593
-179.34313
-179.70293
-180.09398
-174.33425
-146.36653
-168.87871
-182.23153
-168.05016
-157.42357
-173.3056
-141.39202
-154.79153
-137.68483
-161.76955
-165.56776
-148.70596
0
0
0
0
0
0
0
0
-17.682674
0
0
-122.1863
0
0
0
0
0
0
0
-106.24093
0
0
-24.250636
-29.58785
-32.043428
-38.045773
-28.929552
-25.277707
-32.221144
-17.416451
-14.49598
-16.197221
0
-18.463932
-15.273245
0
-21.332721
-24.804118
-28.357719
-19.861868
-22.176282
-28.259541
-19.11536
0
-113.8932
0
0
-93.880182
-80.98666
0
0
-91.694586
0
0
-67.434525
-74.502427
0
0
0
0
0
0
0
0
-140.5018
-196.67956
-161.41145
-186.62535
-181.23091
-161.29683
-140.8026
-89.123984
-102.28402
0
0
-77.126906
-113.77548
0
-100.51278
0
-116.65011
0
-125.0833
-95.427176
0
0
0
0
0
0
0
0
0
0
0
0
0
-115.94317
0
-191.82091
-188.52835
0
0
-123.41935
-141.31046
-141.20957
-194.24442
-193.58012
-101.33508
-142.01759
-133.2953
0
-145.25908
-209.95666
-215.59153
0
0
-149.83279
-216.00325
0
-141.15743
0
0
-174.91736
-150.47946
-188.79228
-195.88977
-188.44568
-112.76
-174.36929
-176.86487
-150.77028
-199.55354
-114.08904
-148.6337
-178.94734
-187.80417
-143.76749
-149.62277
-188.45629
0
0
0
0
-159.0332
-119.38642
0
0
0
0
0
0
0
0
0
0
0
0
0
0
0
0
0
0
0
0
0
0
0
0
0
0
0
0
0
0
0
0
0
0
-120.19562
0
0
0
0
0
0
-84.804342
0
0
0
0
0
0
-149.267
-95.272723
0
-99.187014
0
0
0
0
0
0
0
0
0
0
0
0
0
0
0
0
0
0
0
0
0
0
0
0
0
0
0
0
0
0
0
0
0
0
0
0
0
0
0
0
0
0
0
-129.89126
0
-130.96433
0
0
0
0
-191.83165
0
-148.7714
0
0
0
-75.500738
-148.1939
-189.68746
-160.38077
0
0
0
0
0
0
-120.86916
0
0
-50.652308
-120.38863
-67.546808
-78.453371
-77.50086
-123.96727
-60.912179
0
0
-52.747903
-69.142698
0
0
0
-122.49374
0
-71.031969
-88.943725
0
-132.02011
0
-80.694411
0
-124.30149
0
-130.14524
0
0
-57.368162
-25.031997
-72.427875
0
-66.36954
-47.345832
0
-74.327038
-84.962763
-141.22941
-81.884448
-124.89203
-88.357383
-54.974629
-60.992045
0
0
0
0
0
0
-190.11665
-131.3034
-128.80088
-127.47592
-168.13984
-136.61019
-177.95811
-113.37463
-66.22164
-94.125895
-89.744654
-79.24035
-106.34469
-62.848117
-108.19478
-60.439709
-86.67488
-84.233596
-56.121367
-112.67794
-59.296402
-92.120102
-56.25185
-81.649462
-128.39273
-108.64754
-112.21372
-67.14018
-143.30365
-198.02404
-175.99762
-201.29175
-156.01822
-162.97142
-193.57259
-103.61133
-92.505316
-91.296575
-143.78021
-122.60984
-123.0855
-74.98132
-135.33398
-165.68105
-145.225
-185.6283
-150.09165
-136.77689
-194.0815
0
0
0
0
0
0
0
0
0
0
0
0
0
0
0
0
-147.8212
0
0
0
0
0
0
0
0
0
0
0
0
0
-145.71597
0
0
0
0
0
0
0
0
0
0
0
0
0
0
0
0
0
0
0
0
0
0
0
0
0
0
0
0
0
0
0
0
0
0
-77.901334
-28.879671
0
0
-46.495474
0
0
-69.083769
0
0
-44.268258
0
0
-69.469638
-80.921019
-77.24267
0
-61.746985
-51.898431
0
0
0
0
0
-39.297123
0
0
0
0
0
0
0
0
-14.823817
0
0
0
0
-17.280684
0
-18.830244
0
0
-45.723491
0
0
-21.80126
0
-45.024433
0
-22.964616
0
0
-22.590656
0
0
0
0
0
0
0
0
0
0
0
0
0
0
0
0
0
0
0
-18.062549
0
0
0
0
0
0
0
0
0
0
0
0
0
0
0
0
0
0
0
0
0
0
-83.631784
0
-93.367414
-142.82735
-146.62204
0
-60.552154
-102.33828
0
-189.99412
-190.06183
-102.30469
-173.43772
0
-86.011269
-71.214122
-97.58169
-177.87597
-96.43145
-152.33203
-61.546324
0
0
-151.86276
-170.5134
-167.72465
0
0
-138.00433
0
0
-133.00786
0
-144.55368
0
0
0
0
0
0
0
0
-114.23043
0
0
-59.060621
0
-121.11821
0
0
-57.230022
-131.44762
0
-118.56629
0
0
0
0
0
0
0
0
0
0
-128.74093
-141.40592
0
-141.62316
0
0
0
0
0
0
0
0
0
-43.252336
-48.33274
-34.601192
-35.065682
-58.882199
-44.031905
-47.167189
-11.198474
-16.353336
-22.17924
-25.220543
0
-19.017071
-14.023403
-41.964516
-21.349192
-27.048411
-29.181582
-44.960402
-41.903781
-24.14595
-34.058332
-45.879433
-69.362916
-28.024715
-48.158104
-42.189143
-25.443845
-30.679152
-23.070268
-60.627273
0
-42.349161
-40.347135
-17.765955
-40.729679
-67.892305
-67.830527
-68.126247
-50.902788
-55.527835
-47.005158
-27.359468
0
-21.240156
0
-35.893101
-20.196696
-15.114056
0
0
0
0
0
-96.167286
0
0
0
0
0
0
0
0
0
0
0
0
0
0
0
0
0
0
0
0
0
0
0
-183.61088
-75.277953
0
-127.72128
0
-92.065189
0
0
0
0
-92.745867
0
0
0
0
0
0
0
0
0
0
0
0
0
0
0
0
0
0
0
0
0
0
0
0
0
0
0
0
0
0
0
0
0
0
0
0
-201.57556
0
-79.518293
-87.019741
-144.36434
-206.52534
0
0
0
0
0
0
0
0
0
0
0
0
0
0
0
0
0
0
0
0
0
0
-99.484804
-192.75291
-186.46917
0
-214.70517
-97.960196
0
-84.997305
-142.29895
0
-173.17398
-201.76432
0
0
0
0
0
0
0
0
0
0
0
0
0
0
0
0
0
0
0
0
0
0
0
0
0
-161.76888
0
0
0
0
0
0
0
-145.2915
0
0
0
0
0
0
0
0
0
0
0
0
0
0
-106.49792
0
0
0
0
0
0
0
0
0
0
0
0
0
0
0
0
0
0
0
0
0
0
0
0
-103.87114
0
0
0
0
0
-60.562798
-57.766911
-68.819824
-106.07733
-94.191003
-89.084833
-62.727541
-77.249601
-77.618256
0
0
0
-114.16427
-94.725057
-94.168109
0
0
0
-76.18043
0
0
-152.63762
-161.8006
-169.02507
-168.92006
-172.65244
-160.17399
-144.35288
-125.57805
-136.26697
-120.79448
-103.06244
-109.46933
-139.70076
-114.04032
-142.63614
-135.08926
-148.54554
-121.58821
-159.03741
-143.513
-125.79783
-115.6246
-117.50738
-124.84392
-149.06422
-135.37443
-104.72236
-130.14397
-87.229952
-67.070537
-73.894275
-64.882861
-79.417185
-80.929182
-72.752944
-102.50766
-116.8484
-113.93162
-88.617101
-123.96522
-93.03049
-97.492324
-86.916915
-85.69274
-100.59077
-94.985292
-84.366627
-82.835327
-100.3986
-73.660522
-54.704018
-70.109715
-61.95487
-66.774779
-77.006127
-59.787308
-89.635648
-110.62968
-96.649732
-84.72902
-81.186421
-105.86772
-93.245997
-49.02056
-52.591685
-38.772161
-46.70212
-40.134017
-46.413992
-56.166984
-52.715751
-57.449345
-44.134876
-54.603938
-49.664127
-61.733464
-46.527816
-43.346049
-31.818226
-34.761675
-36.636818
-35.890738
-41.169272
-38.52742
0
0
-13.955688
0
-13.1514
-11.739759
0
0
0
-17.343195
-14.692379
0
-13.641268
-16.629752
-14.772625
-21.628643
-17.571195
-19.300273
-16.929449
-15.305198
-18.78945
-39.499717
-46.115319
-40.419587
-51.821171
-37.740492
-49.294291
-42.413976
-29.179369
-26.43509
-22.819379
-19.766473
-26.460875
-28.626168
-22.492536
-31.847488
-28.062115
-32.953146
-25.026798
-30.799679
-34.47637
-25.14474
0
0
0
0
0
0
0
-105.01671
-155.18953
-145.38685
-159.76877
-124.71685
-128.24799
-131.60367
0
0
0
0
0
0
0
0
0
-103.2046
0
-83.175719
-87.604553
0
0
0
0
0
0
0
0
0
0
0
0
0
0
0
0
0
0
-126.30857
-99.123757
0
0
0
0
0
0
-147.53933
-156.12782
0
-131.71859
-166.34697
-145.60344
-124.72486
-158.45539
-142.10219
-176.12479
-171.86816
-158.6082
0
0
0
-135.81382
-165.29748
-146.1082
-173.29951
-183.24487
-156.06198
0
0
0
0
0
0
0
0
0
0
0
0
0
0
0
0
0
0
0
0
0
0
0
0
0
0
0
0
0
0
0
0
0
0
0
0
-188.1775
-189.08161
-189.97183
-189.77834
-200.8846
-187.77635
-187.6278
-27.946299
0
-29.373267
-30.634019
-23.302331
-29.082965
-22.834277
-24.706163
-17.335017
-21.832075
-22.762117
-20.669532
-25.733568
-18.416943
-155.87082
-148.8681
-125.70046
-138.32999
-179.51246
-161.50673
-161.40556
-201.45816
-161.04801
-171.92434
-180.09295
-192.58044
-203.12633
-170.74889
0
0
0
0
0
0
0
0
0
0
0
0
0
0
0
0
0
0
0
0
-42.68974
0
0
0
0
0
0
0
0
0
0
-42.028765
-29.654398
-30.834105
0
-36.966542
0
-26.495702
-115.24148
0
0
-83.739697
0
0
0
-55.835978
-68.559027
-70.546764
-69.785376
-52.181344
0
-69.500996
0
0
0
0
0
0
0
0
0
0
0
0
0
0
0
0
0
0
0
0
0
0
0
0
0
0
0
0
0
0
0
0
0
0
0
0
0
0
0
0
0
0
-129.93038
0
0
0
0
0
0
0
0
0
0
-195.03224
-186.06689
-190.79883
-155.62514
-185.54798
-196.34919
-170.01876
-140.39868
-113.17286
-135.68607
-142.76769
-151.30129
-124.318
-127.08318
0
0
0
0
0
0
0
0
0
0
0
0
0
0
0
0
0
0
0
0
0
-133.77272
-128.34377
-135.92654
-112.58261
-139.52147
-131.9575
-114.80014
0
0
0
0
0
0
0
0
0
0
0
0
0
0
0
0
0
0
0
0
0
-143.54074
-132.87958
-177.24477
-132.71852
-165.94126
-162.12376
-109.69364
-170.96575
-151.98547
-146.84203
-157.97427
-161.47371
-154.7314
-172.7252
0
0
0
0
0
0
0
0
0
0
0
0
0
0
-43.671405
0
-48.427864
0
-52.257515
-40.964239
0
-95.910805
-98.526281
-123.00153
-99.154654
-109.46902
-114.34353
-85.840968
-173.96039
-177.85677
-172.27559
-171.8254
-166.44182
-179.73248
-174.75562
-68.283462
-51.825383
-64.824633
-65.016444
-54.816114
-69.760604
-51.433163
-76.622859
-60.800346
-73.744696
-88.413043
-89.564414
-75.856816
-62.71654
-192.10528
-199.17695
-193.48044
-198.91887
-195.21326
-191.60788
-208.78506
-173.80065
-158.58864
-167.07951
-158.88869
-166.81418
-179.18215
-172.78166
0
0
-98.557448
0
0
0
0
0
0
0
0
0
0
0
-56.846726
-67.154929
-70.026689
-49.352784
-49.523208
-72.936033
-55.556146
0
0
-45.977424
0
0
-38.477573
0
-88.949064
-115.50742
-100.01229
-94.939498
-96.853349
-104.22529
-86.714608
0
0
0
0
0
0
0
0
0
0
0
0
0
0
-31.215794
-31.602602
-40.299279
-43.993131
-29.024917
-43.619766
-32.798485
-30.827292
-47.336073
-48.22024
-39.240593
0
-43.087821
-36.355269
0
0
0
0
0
0
0
-114.42787
-87.062786
-85.135433
-101.32522
-102.86288
-111.80068
-91.813998
-179.15042
-152.0484
-185.63528
-180.88835
-176.34524
-186.2295
-161.89806
-145.19452
-137.96609
-116.55364
-144.69087
-159.43095
-131.65515
-124.72249
-139.64686
0
-147.97879
-132.72736
-154.30909
0
0
-140.79025
0
-105.52858
-126.25449
-95.154621
-145.62245
0
-70.744325
-76.761911
-55.72361
-57.6014
-72.981717
-73.530152
-59.256495
-70.737109
-58.441138
-86.046942
-63.748118
-73.895187
-82.469695
-55.467543
0
-117.40649
-130.07261
0
-141.47919
0
0
0
0
-10.518719
-11.127657
0
0
0
-43.358623
-32.836621
-35.078963
-35.14729
-43.232345
-43.200522
-33.548552
-45.30702
-50.967983
-61.880519
-45.028982
-54.269846
-50.195285
-41.26618
-31.760099
-29.384623
-40.574961
0
-35.731857
-34.996095
-25.918772
-15.920975
0
0
0
0
0
0
0
0
0
0
0
0
0
-116.80742
-160.80495
-123.65751
-119.43583
-140.91255
-95.643687
-140.58636
0
-99.04321
-99.957759
-92.630821
0
0
0
-164.452
-107.14469
-136.30152
-141.5482
-140.06396
-168.16887
-111.20099
-161.21905
-174.01725
-170.78146
-132.91414
-184.13311
-150.96346
-145.51155
-124.35535
-134.1252
0
-147.37386
-164.65744
-110.10117
0
0
-112.60373
-146.98801
-104.15394
-122.13276
0
-115.24015
0
0
0
-107.84663
0
0
0
0
0
0
0
-100.53007
0
0
0
0
0
0
0
0
0
0
0
0
0
0
0
0
0
0
0
0
0
0
0
0
0
0
0
0
0
0
0
0
0
0
0
0
0
0
0
0
0
0
-114.39708
0
0
0
0
0
-170.71736
-173.41246
-187.96397
-188.93843
-149.46098
-171.69952
-175.60713
-179.94112
-191.32589
-186.9397
-184.83445
-191.14488
-179.29362
-186.33723
-183.22473
-188.39503
-177.76975
-179.12019
-178.95253
-181.536
-182.10747
-190.44347
-151.98184
-181.27407
-175.49668
-173.19739
-178.27997
-192.56079
0
0
0
0
0
0
0
0
0
0
0
0
0
0
0
0
0
0
0
0
0
-35.447703
-49.69013
-40.641586
-42.054158
-43.947865
-36.525509
-50.626425
0
0
-28.636815
-30.834614
0
0
0
-52.236714
-41.174054
-40.81517
-44.545149
-61.147974
-56.024505
-48.13309
-46.575948
-66.881166
-57.250611
-48.354804
-58.537668
-51.591326
-45.587213
-31.768212
-24.004916
-30.715188
-23.83639
-29.976368
-32.600887
-23.455026
-43.124724
-44.683964
-52.137545
-38.69412
-37.587653
-51.457984
-43.740486
-32.288255
0
0
0
0
-32.576967
0
0
0
0
0
0
0
0
0
0
0
0
0
0
0
0
0
0
0
0
0
0
0
0
0
0
0
0
0
0
0
0
0
0
0
0
0
0
0
0
0
0
0
-30.574173
-32.230567
-26.213967
-27.064332
-37.833011
-31.501459
-32.290322
-15.529602
-16.964323
-19.321845
-20.164463
-14.390739
-17.71385
-16.54493
-28.54579
-20.444919
-22.858238
-23.556024
-25.40438
-28.664594
-21.012948
-23.907199
-21.512187
-27.810992
-20.377043
-26.752618
-25.254024
-19.391296
-28.339154
-38.540264
-35.396575
-34.197265
-32.655739
-33.027074
-30.247664
-21.408273
-15.43465
-20.316996
-18.824641
-18.868228
-22.961524
-17.64072
-133.46554
-74.055099
-100.31622
-112.82655
-117.56517
-140.39988
-86.377275
-115.49313
0
-95.39094
-108.80089
-83.097123
-130.30494
0
0
0
-73.259656
-84.359197
0
0
0
-91.960856
0
0
0
0
0
-99.108537
-147.65615
-182.92809
-171.36469
-178.97085
-166.03689
-169.72076
-157.84635
-122.96362
-124.26464
-105.92563
-152.92342
-146.47704
-96.225646
-133.26603
-116.71925
-87.239897
-82.059638
-144.27608
-137.49795
0
-124.2371
-213.82498
-183.06634
-183.62868
-190.11347
-224.26607
-214.36017
-187.53083
-128.85199
-94.278902
-140.13622
-154.94842
-92.853999
-143.1219
-104.27373
-139.38182
-102.36591
-151.44762
-163.93416
-102.05027
-148.41975
-111.84374
-167.5284
-101.75774
-151.78666
-111.47241
-149.97026
-111.64977
-171.52109
-183.37179
-193.9551
-203.4002
-182.52248
-202.91397
-176.26286
-187.26534
-191.5396
-221.77606
-187.6714
-212.21803
-213.00544
-187.41832
-193.44857
-161.10598
-95.591607
-106.6819
-153.9069
-148.70475
-105.49667
-164.98201
0
0
0
0
0
0
0
0
0
0
0
0
0
0
0
0
0
0
0
0
0
0
0
0
0
0
0
0
0
0
0
0
0
0
0
0
0
0
0
0
0
0
0
0
0
0
0
0
0
0
0
0
0
0
0
0
-23.254996
0
-22.963353
0
0
0
0
0
0
0
0
0
0
0
0
0
0
0
0
0
0
-121.2943
-94.279329
-90.807325
0
-90.876934
0
-85.644938
0
0
0
0
0
0
0
0
0
0
0
0
0
0
-87.968488
-90.673114
-82.679518
-79.53228
-93.56622
0
-86.794994
0
0
0
0
0
0
0
0
0
0
0
0
0
0
0
0
0
0
0
0
0
0
0
0
0
0
0
0
0
0
0
0
0
0
0
0
0
0
0
0
0
0
0
0
0
0
-131.23596
0
0
0
0
0
-122.48496
0
0
0
0
0
0
0
0
0
0
-103.39751
0
0
0
0
0
0
0
0
0
0
0
0
0
0
0
0
0
0
0
0
-117.86377
-130.69164
-126.24958
-114.28745
0
0
0
0
0
-121.88362
-123.48313
-130.17182
-123.78191
0
0
0
0
0
0
0
0
0
0
0
0
0
0
-151.00624
-120.98346
-122.366
-118.47884
-151.6571
0
0
0
0
0
0
0
0
-167.62091
-180.12839
-150.61001
-151.50238
-190.35981
-168.11557
-181.33425
-153.09808
-189.42248
-183.48919
-170.06476
-168.90308
-182.30267
-154.962
0
0
0
0
0
0
0
0
0
0
0
0
0
0
-123.47236
-120.80373
-154.14308
0
-153.12183
-124.44548
0
-124.50594
-159.24112
-140.52486
-139.0337
-141.20066
-158.5451
-123.40499
-177.82137
-176.42393
-159.1928
-156.97228
-193.59363
-175.49701
-175.99066
-154.9966
-193.09948
-176.74423
-171.84405
-172.71655
-175.62552
-155.6484
-137.40113
-141.12192
-159.20222
-123.9654
-158.14147
-138.70801
-122.479
0
0
0
-134.03982
0
0
0
-140.89717
-168.75498
-151.97018
-153.52122
-147.32533
-169.68231
-143.98231
-195.48586
-193.49514
-168.93715
-170.9884
-211.59933
-197.77447
-194.95054
-173.46877
-213.39036
-197.41293
-198.09691
-197.60242
-196.21591
-175.85402
-131.24183
0
0
-138.33435
-131.68294
0
-139.03577
-135.77406
0
-141.85164
0
-141.71724
-137.26172
0
-154.95865
-148.91118
-172.76377
-147.76983
-171.24202
-156.00453
-146.85257
-179.74234
-196.10076
-215.27819
-200.37677
-177.73218
-202.81841
-194.79425
-130.4029
0
0
-135.92702
-130.95588
0
0
-154.25097
-120.20293
-153.4013
-150.05383
-175.15876
-127.66068
-140.61444
0
0
0
0
0
0
0
0
-141.04401
0
0
-138.08298
0
0
-181.66364
-214.58897
-168.63891
-150.22045
-204.71448
-193.49544
-143.2867
-157.14402
-174.56212
-147.4016
-151.39052
-156.49765
-176.49163
-146.54978
-188.15726
-191.17702
-183.77787
-180.31916
-185.25444
-189.29133
-181.20177
-194.13644
-191.55857
-189.84733
-184.81854
-192.60976
-193.39888
-177.9553
-190.13743
-186.18543
-192.00433
-182.73423
-190.30642
-185.25807
-187.01891
-189.93407
-135.5834
-149.03284
-129.6253
-167.32517
-173.23169
-151.81357
-190.42323
-193.26234
-187.63322
-164.91133
-194.30266
-181.65136
-181.25968
-192.50648
-178.10751
-171.04955
-140.68079
-193.09112
-173.12283
-161.92746
-168.95735
-205.73147
-181.20358
-180.06701
-162.1993
-185.8495
-188.51542
-153.77647
-142.88379
-157.0483
-147.62232
-166.94909
-155.29895
-135.80374
-161.18834
-160.49726
-191.98534
-167.9067
-182.30587
-170.95109
-147.43144
-175.48274
-212.12118
-171.21822
-193.30704
-189.95397
-197.20316
-172.01879
-148.92778
-162.28448
-127.35362
-145.64333
-143.72201
-165.53623
-130.8936
-152.66359
-182.20251
-188.30418
-169.91838
-154.03193
-180.65279
-169.37709
0
0
0
0
0
0
0
0
0
0
0
0
0
0
0
0
-121.98406
-101.09694
-140.60104
0
0
0
0
0
0
0
0
0
-151.27126
-188.05699
0
-146.1041
-178.66912
-168.60719
0
-117.55072
-151.06107
0
-110.60757
-121.76794
-146.12107
0
0
0
0
0
0
0
0
0
0
0
0
0
0
0
0
0
0
0
0
0
0
0
0
0
0
0
0
0
0
0
0
0
0
0
0
0
0
0
0
0
0
0
0
0
0
-108.20942
0
0
0
0
0
0
0
0
0
0
0
0
0
0
0
0
0
0
0
0
0
0
0
0
0
0
0
0
0
0
0
0
-72.343397
-102.03585
-82.362188
-94.896565
-87.029362
0
0
0
0
0
0
0
0
0
0
-99.220313
0
0
0
0
0
0
0
0
0
0
0
0
0
0
0
0
0
0
-104.84643
-100.98483
0
0
0
-106.37661
-94.639193
-148.34474
-144.38554
-147.75592
-144.22696
-142.98985
-146.01355
-147.45063
-123.43645
-104.62523
-114.04744
-94.205653
-109.61214
-124.36054
-104.7579
0
0
0
0
0
0
-108.67292
-143.3884
0
-127.70904
-128.49962
0
-122.32422
-144.79333
0
0
0
0
0
0
-89.463298
0
0
0
0
0
0
0
0
0
0
0
0
0
0
0
0
0
0
0
0
0
0
0
0
0
0
0
0
0
0
0
0
0
0
0
0
0
0
0
0
0
0
0
0
0
0
0
0
0
0
0
0
0
0
0
0
0
0
0
0
0
0
0
0
0
0
0
0
0
0
0
0
0
0
0
0
0
0
0
0
0
0
0
0
0
0
0
0
0
0
0
0
0
0
0
0
0
0
0
0
-128.73246
0
0
0
0
0
0
0
0
0
0
0
0
0
-130.12623
0
0
0
0
0
0
0
0
0
0
0
0
0
0
0
0
-132.23452
0
0
0
0
0
0
-136.99041
0
-161.94242
-180.82287
-190.61801
-193.50828
-174.4809
-187.39747
-173.81925
-120.05038
-110.97468
-119.65096
0
-146.45894
0
0
-146.61574
-122.72371
-176.726
-137.69343
-164.76965
-164.62885
-109.55361
-133.93782
0
0
-160.40843
0
-153.88229
-146.94604
0
0
0
0
0
0
0
-124.1997
0
0
0
0
0
-140.93875
-127.80735
-114.73642
0
-81.276044
-114.791
0
-129.40373
-154.0676
-149.14061
-144.98906
-144.96509
-155.38704
-152.36994
-130.79303
-189.70222
-173.16459
-201.12793
-200.12933
-180.43879
-209.8269
-185.45617
-162.17125
-132.97693
-150.77301
-187.6757
-167.5715
-128.64468
-180.74595
-114.10233
0
0
0
-111.1984
0
0
-148.05735
0
-90.000048
-162.75474
0
-170.53061
-144.60646
0
0
0
0
0
0
0
0
0
0
0
0
0
0
0
0
0
0
0
0
0
0
0
0
-110.28397
0
0
0
0
0
0
0
0
0
0
-60.292952
-58.470382
-69.196247
-69.408241
-50.644438
-59.176748
-59.880291
-105.95843
-97.767581
-89.462417
-89.860359
-121.7163
-106.40881
-101.72765
-65.32424
-83.290831
-78.572238
-79.467336
-75.716402
-67.772462
-89.553177
-80.32972
-82.580575
-92.54087
-69.493296
-69.819571
-95.69711
-80.657769
-90.207611
-123.03676
-105.02889
-108.14902
-106.53979
-105.7754
-90.776507
0
0
0
0
0
0
0
0
0
0
0
0
0
0
0
0
0
0
-67.155705
0
0
0
-77.170014
0
0
0
0
0
0
0
0
0
0
0
0
0
0
0
0
0
0
0
-121.79981
-104.27881
-108.21655
-122.33622
-127.42562
-129.97809
-113.6437
0
0
0
0
0
0
0
-88.154525
0
-94.078021
-113.11948
-84.952608
-100.71641
0
-132.55345
-97.119453
-106.32598
-100.96889
-113.38302
-113.43599
-121.69136
0
0
-137.70596
0
0
0
0
-135.7652
-132.19255
-119.19735
-136.61012
-137.43273
-122.80794
-130.05309
0
0
0
0
0
0
0
-96.051229
-98.380675
0
-72.367799
-108.92373
-90.409145
0
0
0
0
0
0
0
0
-101.65588
0
-127.20371
-108.23704
-121.67981
0
-107.28145
0
0
0
0
0
0
0
-112.3547
-113.49624
-132.65451
-128.70991
-129.41084
-120.76179
-108.40681
0
0
0
0
0
0
0
0
-69.966245
-91.132781
0
0
-89.15331
0
-44.358834
-52.813244
-55.932099
-44.764422
-44.4412
-54.589571
-41.585229
-35.856807
-27.661296
-31.497526
-24.249533
-33.343443
-34.096438
0
-59.442885
-61.802894
-85.338028
-60.466748
-72.912561
-69.197725
-51.76641
-38.288197
0
0
0
0
0
0
-53.022285
-59.379662
-83.48847
0
-62.337297
-68.528217
-44.526166
-46.622108
-52.837902
-39.826369
-48.927335
-44.348452
-53.618262
-42.238125
-33.555043
0
0
0
-32.573939
0
0
-81.348164
-89.173976
-70.202439
-69.244044
-80.992668
-85.859631
-69.077224
-106.99481
-133.00544
-131.35021
-128.99286
-120.41006
-128.02564
-112.4392
-87.655088
-91.040526
-96.169332
-68.718283
-105.88233
-78.591188
-77.62845
-93.309169
-103.72161
-110.48168
-125.87559
-112.95259
-91.750051
-102.75565
-97.947445
-77.959691
-111.28964
-106.89373
-121.20508
-95.564919
-86.135692
-74.05586
-62.218077
-64.417961
-57.04698
-72.490571
-63.421231
-67.065171
0
0
-52.711652
0
0
0
0
0
0
0
0
0
0
0
0
0
0
0
0
0
0
0
0
0
0
0
0
0
0
0
0
0
0
0
0
0
0
0
0
0
0
0
-179.3005
-167.54576
-167.1613
-166.92108
-191.15135
-167.52572
-180.19954
-154.87364
-124.99298
-149.33905
-150.25944
-133.2422
-125.94822
-156.76732
-171.64377
-167.14891
-181.5848
-177.14613
-171.70621
-181.57036
-175.82028
-151.08704
-135.13638
-127.97252
-160.35397
-126.85286
-151.98829
-158.61925
-87.397277
-101.15316
-82.152853
-82.56059
-109.97477
-101.73776
-89.045367
-65.201102
-55.737462
-71.738386
-52.404919
-66.599641
-71.220453
-50.985539
-82.954483
-111.72366
-103.4081
-91.34428
-102.3006
-84.010226
-90.669459
-71.011865
-56.286932
-71.692144
-54.52262
-68.806024
-71.666205
-56.654964
-91.978995
-108.04444
-125.94404
-112.86535
-110.54706
-106.85352
-93.526793
-87.689683
-105.44485
-91.039463
-111.79391
-85.844756
-107.57399
-90.766786
-187.97464
-203.9906
-185.05582
-206.28471
-182.85598
-188.65178
-209.54767
-173.43808
-162.21787
-181.0665
-176.36516
-172.71544
-180.25764
-174.72534
-160.57876
-162.40177
-145.16754
-137.65619
-135.0905
-164.02194
-163.7365
-172.93946
-170.19687
-178.41916
-192.8267
-176.61396
-170.58903
-180.50887
-157.18905
-133.95718
-146.17382
-168.13806
-132.26326
-153.99535
-166.41174
-157.55359
-130.21785
-161.26586
-137.12388
-154.69108
-132.58754
-162.39202
-171.40888
-171.21234
-182.66196
-193.70202
-169.42043
-174.18681
-181.78424
0
0
0
0
0
0
0
0
-122.52708
0
0
0
0
0
0
0
0
0
0
0
0
0
0
0
0
0
0
0
0
0
0
0
0
0
0
0
0
0
0
0
0
0
0
-132.8745
0
0
0
0
0
0
0
0
0
0
0
0
0
0
0
0
0
0
0
0
0
0
0
0
0
0
0
0
0
0
0
0
0
0
0
0
0
0
0
0
0
0
0
0
0
0
0
0
0
0
0
0
0
0
0
0
0
0
0
0
0
0
0
0
0
0
0
0
0
0
0
0
0
0
0
-54.834914
0
0
0
0
-63.358449
0
0
0
0
0
0
0
-63.381713
-63.396704
-74.273562
-81.556637
-66.029577
-68.942219
-77.70982
-61.130271
-43.858608
-36.191119
0
-34.848107
0
-37.500284
-41.904319
0
0
0
0
0
0
0
-59.53657
0
0
-71.633526
0
-65.435796
-68.167558
-52.376606
-54.232809
-54.805308
-40.731753
-59.81333
-46.123788
-48.503212
0
0
0
0
0
0
0
0
0
0
0
0
0
0
0
-59.243346
-71.559722
-55.003946
0
-62.587625
-47.745377
0
0
-29.326703
0
0
-32.893494
0
0
0
0
0
0
0
0
-50.5937
-52.962918
-49.504109
-35.892673
-57.621244
0
-40.684223
0
0
0
0
0
0
0
-72.212824
0
0
-67.468717
0
-68.401639
-71.559522
-79.305757
-93.464371
0
-66.556678
-84.271306
-68.373107
-86.324806
-81.40586
-89.631593
-84.62601
-71.216334
-74.225114
-93.681976
-78.806641
-78.794117
-85.594402
-80.132607
-64.051397
-87.369604
-70.184919
-75.80334
-76.225596
0
0
-78.458356
-80.963918
0
-74.910106
-74.565282
0
-63.904165
-74.077699
-66.482775
-70.049076
-79.685337
-72.235924
-59.234438
-61.309932
-57.559664
-66.018483
-64.546212
-68.399838
0
0
0
0
0
0
0
0
0
0
-27.692227
0
0
0
0
0
0
0
0
0
0
0
0
0
0
0
0
0
0
-48.612734
-33.830966
-31.372501
-41.680178
0
-27.081526
0
0
0
0
0
0
0
0
0
0
0
0
0
0
0
0
0
-15.691516
0
0
0
0
0
0
0
0
0
0
0
0
0
0
0
0
0
0
0
0
0
0
0
0
0
-16.51806
0
0
0
0
0
-24.546824
-23.481553
0
-19.969483
-21.330409
-16.401192
-25.845117
0
0
0
0
0
0
0
0
0
0
0
0
0
0
-34.047167
-46.049318
-45.419849
-34.343552
-32.876733
-46.929722
-34.34813
0
0
0
0
0
0
0
0
0
0
-43.984202
0
-30.85251
-46.654175
-25.217271
-21.002132
-18.071072
-27.521246
-17.778849
-24.909657
-27.018733
0
0
0
0
0
0
0
-30.122162
-44.205384
-43.285398
-34.478956
-31.569941
-40.96552
-34.534489
0
0
0
0
0
0
0
-24.225177
-29.793956
0
-23.063766
0
0
-29.003243
0
0
0
0
0
0
0
0
0
-40.460283
0
0
0
0
-23.986497
-18.296745
-27.979794
-23.331763
-24.500889
0
-28.390266
0
0
0
0
0
0
0
0
0
0
0
0
0
0
0
0
0
0
0
0
0
0
0
0
-17.141011
0
0
0
0
0
0
0
0
0
0
0
0
0
-18.514592
0
0
0
0
0
0
0
0
0
0
0
0
0
0
0
0
0
0
0
0
0
0
0
0
0
0
0
0
0
0
0
0
0
0
0
0
0
0
0
0
0
0
0
0
0
0
0
0
0
0
0
0
0
0
0
0
0
0
0
0
0
0
0
0
0
0
0
0
0
0
0
0
0
0
0
0
0
0
0
0
-105.62361
-132.12116
0
-70.048705
0
-109.46592
-127.23706
-88.264301
0
0
0
0
-75.738205
0
-117.73294
-89.213101
-109.78179
-100.18181
-105.54045
-95.981286
-122.30057
-137.69469
-122.92181
-140.7821
-156.13552
-122.08836
-138.16211
-155.03772
-136.97721
-163.30576
-125.60379
-141.58915
-121.24169
-141.13749
-158.31429
-105.46322
0
0
0
0
0
-122.66489
-90.740784
-63.248891
0
-81.234217
-78.557972
0
-93.6325
-164.50048
-104.50447
-161.56016
0
-105.16905
-165.30087
-167.82543
-156.53852
-128.16237
0
0
0
-153.46378
-136.94074
-186.70105
-184.18635
-196.23434
-184.93158
-182.37548
-184.61967
-196.24071
-181.16098
-190.50522
-185.23851
-176.71966
-185.83361
-183.41186
-171.93351
-161.49204
-102.82374
0
-163.80321
-103.58098
-156.61798
-164.67252
-189.57939
-189.86972
-179.17765
-183.80559
-184.26309
-194.02175
-192.78969
-159.00984
0
0
-153.85328
0
-161.83235
-146.12978
-117.5098
-88.21353
-136.17729
-72.436213
-74.657074
-113.59037
-140.01569
-109.36541
-105.53853
-75.844259
-67.234478
-119.56462
-96.883913
-70.227722
-131.54511
-105.12201
-114.10624
-104.41148
-119.21125
-112.25304
-126.90565
-161.12044
-160.7063
-189.70418
-165.73133
-173.68623
-147.85851
-178.55037
-125.6023
-91.125194
-84.791074
-154.31481
-135.41271
-79.198703
-145.21227
-150.67482
-167.85083
-131.1993
-158.03443
-136.9196
-146.00503
-172.22922
-99.660717
-64.317646
-63.556236
-83.85923
-88.768647
-65.410277
-96.482598
-155.10634
-157.59165
0
0
0
-146.38688
-170.54502
0
0
0
0
0
0
0
-167.61122
-158.79226
-155.0262
-157.03639
-166.44815
-153.38209
-163.95915
-155.86518
-149.71886
-178.14766
-153.08609
-164.35956
-175.50225
-127.03775
-182.49298
-185.5791
-160.7577
-183.20297
-176.28355
-174.95874
-195.86135
0
0
0
0
0
0
-134.53562
0
0
0
0
0
-153.0148
0
-142.45347
-115.70554
-107.10579
-140.60134
-103.78554
-146.87327
-118.8655
0
0
0
0
0
0
0
0
0
-132.53735
0
0
-123.57352
-122.54782
-115.30379
-129.64962
-154.57362
-99.377549
-150.22271
-124.46118
-92.74041
0
0
0
0
0
0
0
-127.25666
-143.12574
-135.67995
-154.84264
-151.28912
-130.4844
-135.7195
0
0
0
0
0
0
0
0
0
0
0
0
0
0
0
0
0
0
0
0
0
0
0
0
0
0
0
0
0
0
0
0
0
0
0
-91.639604
-97.088162
-104.02152
-117.22903
-92.248475
-94.551539
-111.69656
-104.27239
0
-118.47859
0
-116.76184
0
-101.01188
-79.004291
0
0
0
-72.377932
-60.121685
0
-80.538105
-59.834254
-75.793952
-60.898565
-76.290715
-62.782123
-78.766705
-94.217523
0
0
0
-84.749916
-101.55167
0
-102.11997
-120.18893
-121.20626
-97.60701
-97.431291
-119.80508
-101.26054
-85.982567
0
0
-61.147444
-65.099046
0
-81.10246
-68.46408
-97.679805
0
0
-84.955948
-76.324543
0
-69.346554
-55.238768
-73.432539
-57.289056
-71.11164
-53.453043
-74.026372
-84.599428
-108.02323
-115.29293
-102.34628
-93.882217
-96.334028
-90.844115
0
0
0
0
0
0
0
-87.360858
-110.64414
-95.100574
-116.07927
-92.64695
-94.430737
-99.721869
0
0
0
0
0
0
0
-56.717853
0
-54.357522
0
-47.00147
-69.3108
0
0
0
0
0
0
0
0
0
-105.81782