/*--------------------------------*- C++ -*----------------------------------*\
  =========                 |
  \\      /  F ield         | OpenFOAM: The Open Source CFD Toolbox
   \\    /   O peration     | Website:  https://openfoam.org
    \\  /    A nd           | Version:  8
     \\/     M anipulation  |
\*---------------------------------------------------------------------------*/
/*   Windows 32 and 64 bit porting by blueCAPE: http://www.bluecape.com.pt   *\
|  Based on Windows porting (2.0.x v4) by Symscape: http://www.symscape.com   |
\*---------------------------------------------------------------------------*/
FoamFile
{
    version     2.0;
    format      ascii;
    class       scalarListList;
    location    "constant/vegetation";
    object      F;
}
// * * * * * * * * * * * * * * * * * * * * * * * * * * * * * * * * * * * * * //


75
(

1972
(
0.019547231
0.00051071035
0.00011214626
0.00023846942
0.0030100499
0.023288322
0.014880851
0.05302129
0.0048390563
0.0075557555
0.0017799147
0.0017001399
0.0027165597
0.00043276213
0.00017243261
0.0016120529
0.00052874843
0.00033761265
0.0015501339
0.00025496217
0.001261294
0.00025413751
0.00023861629
0.00061952084
9.2408264e-05
0.00013378241
0.00026419165
0.00010015826
6.190907e-05
6.5641691e-05
7.3596275e-05
8.6165045e-05
4.3968626e-05
5.566401e-05
0.026613805
0.039218612
0.007869953
0.00024444007
0.0001400909
0.00058737772
0.00019277407
0.00047054154
0.00049701298
0.0005206301
0.000222565
0.00044979094
0.00024456034
0.0005603698
0.00059247718
0.00022710111
0.00016414749
0.00017295038
0.00018022825
0.00023922262
0.0001847392
0.00021949469
0.00010667784
0.00010554416
0.00010161091
0.00010479543
0.00010666915
0.00010534845
0.00015103566
0.00010436934
0.00011544044
0.00021081213
0.0001838848
0.00014076551
0.00017191374
0.00010209029
0.00010041296
0.00010028333
0.000131546
0.00011021561
0.0004853703
0.00011395931
0.00011779409
0.00011998684
0.00049348683
0.00011866829
0.00011994434
0.00047450372
0.00011617345
0.0005868335
0.00014394401
0.00017345503
0.00021140676
0.00020385735
0.00018610518
0.00011150923
0.00013321852
0.00011076328
0.00010641441
0.00010649161
0.0001062304
0.00010611212
0.00010532328
0.00010586603
0.00010152567
0.0001028082
0.00010268307
0.00010460474
0.00010387582
0.0001037197
0.00010641892
0.00010641501
0.00010625388
0.00010592555
0.00010556921
0.00010594591
0.00028663046
0.00020052814
0.00021922019
0.0001957707
0.00019397907
0.00020837689
0.00014836742
0.00015058807
0.00015863188
0.00018110488
0.00016088378
0.00016950054
0.00010031591
9.9565958e-05
9.9199632e-05
9.8833074e-05
9.9423698e-05
9.8473895e-05
0.00013875393
0.00012334209
0.00012996016
0.00011619315
0.00011639572
0.00012237769
0.00064609028
0.00055216101
0.00062541883
0.00057787916
0.00061345116
0.00063467916
0.00065219969
0.00058807849
0.0006467953
0.00011546485
0.0001316787
0.00013434819
0.00011672654
0.00013725027
0.00013585279
0.00011977218
0.00013980808
0.00013962164
0.00011933013
0.00013827549
0.00013910153
0.00011946619
0.00013972097
0.00013821565
0.00011763496
0.00012068963
0.00013531924
0.00015406351
0.00015498997
0.00016630993
0.00016308099
0.00016880492
0.00017481718
0.00019712844
0.00020528337
0.00019758647
0.00011011367
0.00012820161
0.00011463076
0.00012435995
0.00014306326
0.0001213092
0.00011040316
0.00011773018
0.00012999765
0.00013033724
0.00049213422
9.1737419e-05
0.00010480588
0.00022583066
0.00024113842
0.0001960406
9.646365e-05
0.00010529558
0.00012737803
0.00010535665
0.00010452259
0.00010610368
0.00010173496
0.00010965093
0.0001490181
0.00013283759
0.00012126531
0.00012392562
0.00024382221
0.00022275097
0.00022203125
0.00014279215
0.0001504842
0.00015339505
0.00027757216
0.00019129027
0.00021653628
0.00021811619
0.00020360163
0.00020040121
0.0002259232
0.00024082237
0.00022269246
0.00023825095
0.00020986537
0.00022060909
0.00011288931
0.00011014105
0.00011635366
0.00024274368
0.00021876283
0.00022053052
0.00016146591
0.00017639974
0.00016452657
0.00023794697
0.00021690122
0.00021548559
0.00019471848
0.00018931031
0.0002031703
0.00021417438
0.00019833956
0.00019836176
0.00024401116
0.00022266716
0.00022209673
0.00023133315
0.00020727359
0.00021091085
0.00024275682
0.00021921285
0.00022094126
0.00023507661
0.00021693463
0.0002141464
0.00013677702
0.00012744577
0.00012718363
0.00013590506
0.0001134405
0.00012010912
0.00022253387
0.00022337706
0.0002215128
0.00021470951
0.00021874776
0.00021781939
0.00014838766
0.00017673833
0.00015941293
0.00018633223
0.00018074254
0.00016932755
0.00021281435
0.00019493131
0.00020887665
0.00020207162
0.00018258466
0.00019843877
0.0002225038
0.00022546633
0.00022189043
0.00022438881
0.00021906535
0.00022074396
0.00020740664
0.00021477518
0.00021104924
0.00021686255
0.00021779446
0.00021418456
0.0004716717
0.00050849155
0.00017926353
0.00036365753
0.00015792217
0.00024423921
5.493017e-05
8.4997979e-05
4.6297691e-05
4.7590559e-05
2.203999e-05
0.00019940869
0.0007673587
0.00042405616
9.3145637e-05
0.0001299677
0.00048430555
0.00040497231
0.00010019403
4.012484e-05
0.00024885842
0.0001596997
0.0003163552
8.84454e-05
0.0002538394
8.750938e-05
6.9060942e-05
7.5548701e-05
7.5557723e-05
0.0001812889
0.00018875147
0.0001838752
6.4764984e-05
6.2926959e-05
3.3988716e-05
5.4897281e-05
3.079292e-05
2.7013824e-05
7.3746198e-05
4.2105578e-05
4.6574313e-05
2.2216513e-05
6.1299255e-05
8.8459106e-05
1.7289264e-05
0.0001357868
5.9437927e-05
7.0771167e-05
0.00012388182
3.493264e-05
5.5006963e-05
0.00019972884
3.3342241e-05
1.2925614e-05
3.2246876e-05
1.8553052e-05
3.1208227e-05
0.00013575112
7.082068e-05
3.2245866e-05
6.9332254e-05
7.6030734e-05
8.0757717e-05
0.0001336231
8.3141849e-05
9.1051708e-05
5.662253e-05
4.4009495e-05
5.0597083e-05
3.4671758e-05
4.097549e-05
4.6802848e-05
2.419063e-05
2.4427849e-05
3.1883042e-05
2.5756998e-05
2.61409e-05
3.4948452e-05
0.00020293066
9.3259934e-05
0.00013409332
9.1995603e-05
8.2541145e-05
6.1736875e-05
8.1505057e-05
4.929648e-05
3.4401873e-05
0.00014924264
0.00018246867
0.00019262222
0.00015909233
3.1996363e-05
2.6240639e-05
2.4515593e-05
9.323588e-05
0.00013376501
9.2295985e-05
0.0002543259
8.2674704e-05
8.2533012e-05
7.0199192e-05
8.3064165e-05
0.00013235757
9.2881613e-05
3.735816e-05
3.3039426e-05
3.7763028e-05
3.5003916e-05
4.1804004e-05
3.0115361e-05
3.2199586e-05
3.0084181e-05
3.2309439e-05
4.943708e-05
3.513193e-05
0.00016632548
0.00014295668
0.00014817378
0.00010652178
9.3061327e-05
0.00010628416
0.00010499813
9.26383e-05
0.00010575045
7.4713558e-05
8.2374147e-05
7.4535633e-05
7.3688935e-05
8.2029761e-05
7.4171485e-05
2.9925915e-05
3.2101925e-05
3.0020682e-05
0.00010645714
9.3054058e-05
0.00010617651
9.2722584e-05
0.00010507896
0.00010567383
7.4710126e-05
8.2468949e-05
7.4672804e-05
8.3035725e-05
8.368049e-05
7.5556456e-05
3.315594e-05
3.7820882e-05
3.5137684e-05
4.2397447e-05
7.0451679e-05
7.0006198e-05
7.0184927e-05
7.0480927e-05
7.0951517e-05
7.0407299e-05
7.3076752e-05
7.9674368e-05
7.2236438e-05
0.00010393026
8.9553032e-05
0.00010216608
3.1702585e-05
2.9800221e-05
2.9642058e-05
0.0001957806
0.00017982758
0.00018616947
0.0002131132
0.00017223949
6.8317738e-05
6.862395e-05
6.9136907e-05
4.1443005e-05
4.7313787e-05
3.9990378e-05
3.6477198e-05
3.4504774e-05
3.6472275e-05
2.8027694e-05
2.8113648e-05
7.403082e-05
7.0813418e-05
6.9139138e-05
7.0517461e-05
0.00010520568
4.1562714e-05
4.8979187e-05
4.1085987e-05
3.5296307e-05
4.1828122e-05
3.7704557e-05
0.00013544651
0.00011701738
0.00011674636
6.0271782e-05
6.4347112e-05
6.5328322e-05
0.00016312971
9.3666289e-05
0.00011238912
5.5740833e-05
5.0988641e-05
5.1674545e-05
3.36496e-05
3.5666862e-05
3.6030878e-05
1.7923199e-05
2.1146595e-05
2.084924e-05
3.1452451e-05
2.9245073e-05
2.9447774e-05
0.00013478206
0.00011539304
0.00011608288
6.982841e-05
7.8086578e-05
7.1108376e-05
0.00013451111
0.00011455536
0.0001136142
9.0588369e-05
8.7021715e-05
9.8620848e-05
4.7335782e-05
4.4605738e-05
4.8000595e-05
3.820363e-05
4.1468167e-05
3.8618951e-05
1.7934944e-05
2.0830934e-05
2.2714084e-05
2.4244365e-05
2.263703e-05
2.7434578e-05
2.5885707e-05
2.7606961e-05
0.00013548309
0.00011687195
0.00011661685
0.00013481759
0.00011524199
0.00011604748
0.00013060899
0.00011421218
0.00011286783
1.4253521e-05
1.478461e-05
6.192688e-05
6.7884092e-05
6.6859055e-05
5.7148648e-05
5.7701546e-05
5.3254612e-05
5.4332568e-05
4.6438087e-05
4.9965327e-05
3.4294856e-05
4.1593518e-05
3.6950609e-05
3.9330553e-05
4.2752354e-05
3.9577068e-05
2.2738798e-05
2.433494e-05
2.2667261e-05
2.791549e-05
2.6022554e-05
2.7776191e-05
0.00014958229
0.0034087086
0.0017265011
0.0037544972
0.012177763
0.021145735
0.0082895204
0.00019022848
0.00012439138
0.00010852718
0.00021970191
0.00012362137
0.0002214308
0.00012613151
0.00012273581
2.9900565e-05
3.6451524e-05
4.8277297e-05
3.9030796e-05
2.8051821e-05
2.3197209e-05
1.630499e-05
2.1748401e-05
0.00011486439
7.4578522e-05
5.1983722e-05
6.6748116e-05
0.00020355039
0.00012562395
2.3682695e-05
2.5242114e-05
0.00016521725
5.2581191e-05
4.2400676e-05
3.2396821e-05
0.00014272721
3.9570861e-05
3.7861415e-05
3.5289884e-05
2.2242288e-05
2.0909163e-05
2.6484651e-05
1.7204937e-05
2.3066976e-05
3.0367086e-05
9.2666744e-05
2.4603521e-05
1.2461415e-05
1.5084613e-05
3.3014248e-05
4.864355e-05
0.00025705494
5.6656786e-05
7.1811748e-05
0.00011600105
9.4324474e-05
8.0558988e-05
4.0664061e-05
4.3722389e-05
0.00027882753
9.6390816e-05
9.0108904e-05
2.6290962e-05
3.1905033e-05
2.8035899e-05
2.8767675e-05
2.6933247e-05
3.4082752e-05
3.1988589e-05
2.9930285e-05
3.0761928e-05
3.2929592e-05
4.2233529e-05
4.4914026e-05
3.9326386e-05
3.4228135e-05
4.184255e-05
3.6666212e-05
2.468034e-05
2.6329531e-05
2.3191183e-05
1.8520081e-05
1.9672871e-05
2.4711821e-05
2.0496245e-05
2.1804812e-05
1.743236e-05
1.6368054e-05
1.4373561e-05
1.8771261e-05
1.6515216e-05
1.9226469e-05
2.0322067e-05
1.7949818e-05
0.00015212422
9.5318464e-05
8.6879953e-05
5.4181843e-05
5.5962744e-05
8.4849637e-05
6.3741623e-05
7.2124736e-05
5.0632925e-05
4.7054257e-05
4.5425148e-05
5.6107153e-05
4.8964051e-05
5.7724044e-05
6.0858397e-05
5.2978795e-05
0.00015245247
0.00017654445
4.8871014e-05
6.000574e-05
5.563021e-05
4.5492253e-05
4.8199648e-05
5.1890727e-05
3.4590364e-05
3.6689924e-05
3.9314128e-05
3.6974195e-05
4.5055163e-05
4.1945385e-05
2.1413459e-05
2.6452765e-05
2.2036201e-05
2.8441804e-05
3.4452922e-05
3.1955677e-05
2.639479e-05
2.492745e-05
2.9556963e-05
6.1145697e-05
6.4520694e-05
6.9449695e-05
6.5713266e-05
7.3490426e-05
7.4136497e-05
9.110476e-05
9.261414e-05
9.4869522e-05
8.0380295e-05
7.9862621e-05
0.0001016799
0.00010450544
3.6310775e-05
3.0087207e-05
3.278707e-05
1.3877016e-05
7.1757248e-06
1.2903762e-05
0.0001209106
0.00010734973
0.00010500454
1.9646913e-05
1.9911256e-05
0.00011817187
9.9382466e-05
0.00010228253
0.00012852202
0.0001093192
0.00011121895
2.3725709e-05
9.9827648e-05
8.3834026e-05
9.7268817e-05
0.00010165419
8.9207503e-05
0.00010286163
0.0025548386
0.0023239861
0.0012208318
0.024512596
0.00061319375
8.7693145e-05
0.00021484342
0.00049430658
0.00013193442
7.843021e-05
0.00026949989
0.00018811608
0.00061620509
0.00010276692
0.00030796242
6.7019182e-05
0.00014136668
8.4007947e-05
0.00020363626
6.8624645e-05
6.4561614e-05
4.6134474e-05
3.0203703e-05
3.3732849e-05
7.3841194e-05
1.7581731e-05
2.6964959e-05
0.0046094471
0.0050114943
3.3994284e-05
3.4083633e-05
3.1952173e-05
3.0208941e-05
2.8566384e-05
3.5818956e-05
3.7971423e-05
3.4393448e-05
2.8159671e-05
3.8281587e-05
3.8909301e-05
3.5940433e-05
2.9904717e-05
3.0039053e-05
3.1949928e-05
3.8233758e-05
4.0628739e-05
3.9397348e-05
3.9101081e-05
3.1219839e-05
3.7475407e-05
3.8189074e-05
3.9845876e-05
2.4841688e-05
2.65252e-05
3.8555957e-05
3.868548e-05
3.6186703e-05
3.3776034e-05
3.6296324e-05
3.002384e-05
3.1770752e-05
2.8147647e-05
3.1931016e-05
2.771225e-05
3.3923914e-05
3.380889e-05
3.6007714e-05
4.0282694e-05
4.2769443e-05
3.8297851e-05
3.8959557e-05
3.9401846e-05
3.9134245e-05
3.9345066e-05
3.9246338e-05
3.3199603e-05
3.5269203e-05
3.6564476e-05
3.889568e-05
3.8514697e-05
3.8748522e-05
3.9358512e-05
3.9268285e-05
3.6025409e-05
3.8338551e-05
0.047151387
0.00052716032
0.0035538109
0.013063064
0.0026283157
0.00078400442
0.00018748784
0.00010728918
0.0002213496
0.0034310883
0.00015088245
0.00082889724
0.00030130671
0.0003333314
0.0012590947
0.00024093484
0.00010840865
4.0212665e-05
5.5562846e-05
4.2202557e-05
8.5451987e-05
6.0694746e-05
3.568615e-05
0.0056792768
0.076423872
0.019806113
0.018755538
0.016820517
0.0075475346
0.00057871539
0.00054647147
0.00051349312
7.0080886e-05
8.0611e-05
0.0001298832
7.3507079e-05
7.6705503e-05
0.00052464328
7.5375644e-05
0.00045586361
0.00052002381
0.0003123807
0.00032593641
0.00049170572
0.00021687816
0.00022653203
0.00023222111
0.00022877594
7.9049127e-05
9.6175626e-05
0.00011103795
0.00015322666
0.00010373755
0.00012116213
0.0002322474
0.00022900814
0.00016340288
0.00016405086
0.00019573917
7.5112555e-05
7.6169836e-05
7.6647403e-05
7.0373932e-05
0.00014157317
0.00017978257
0.00021287706
0.00020490598
0.00020822982
0.00013128462
0.00010574482
7.6823526e-05
9.8443188e-05
0.00020326848
0.00057431463
0.00020038916
0.00056426051
0.00019012205
0.0001984869
0.00014371357
0.00018517202
0.00018025922
0.00034981174
7.5895992e-05
9.9397966e-05
0.00013430686
0.00039326698
0.00010786662
0.00022056344
0.00022377881
0.00023163415
0.00023048223
0.00023162909
0.0002304259
0.0001486807
0.00015379263
0.00016073141
0.00016803841
0.00018944435
0.00017521094
0.00020907052
0.00020604246
0.00013829612
0.00012208516
0.000128855
0.00011362101
0.0001119474
0.00012009457
8.5287133e-05
8.5475288e-05
9.2078538e-05
0.00010445829
9.1844025e-05
9.7846457e-05
0.00043986529
0.00048129811
0.00041377106
0.00044244663
0.00051706627
0.00044532334
0.00050853584
0.00041957247
0.00043845506
0.00020112576
0.00019354573
0.00017902966
0.00020279487
0.00020482702
0.00020446586
0.00020183081
0.00020212045
0.00020355651
0.00019340904
0.00019105653
0.0001953445
0.00019616417
0.00020034616
0.00019794478
0.00015582844
0.00015423832
0.00015230743
0.00018174446
0.00018567951
0.00016684365
0.00017085868
0.00018086326
0.00018836284
7.5592962e-05
8.5678531e-05
9.4717853e-05
9.2144507e-05
0.00010778839
9.0474054e-05
0.00012481827
0.00014511149
0.00013507143
0.00011607905
0.00011671635
0.0001258903
6.2204028e-05
8.704678e-05
0.00057346186
0.00013999321
8.2477312e-05
7.4881478e-05
0.00020142629
0.00022785865
7.1109054e-05
8.7884763e-05
0.00020319467
0.00055668343
0.00019669513
0.00037921844
7.9286799e-05
0.00034913126
7.4923245e-05
0.00027245491
0.00022830375
9.898539e-05
0.00029953571
7.725419e-05
0.00014340905
0.00015098512
0.00015629841
7.2500587e-05
7.8574651e-05
8.1568902e-05
8.4590837e-05
0.00013255506
0.0001205305
0.00012280636
7.4211811e-05
7.6567342e-05
8.1149495e-05
0.00031640462
0.00037709765
0.00033216896
8.1678711e-05
0.00038282605
7.5483846e-05
0.00016167159
0.00019163245
0.00017212499
7.052829e-05
8.9056036e-05
9.7787369e-05
9.0832714e-05
0.00011183738
0.00010551395
0.00011384275
8.4905906e-05
8.6565975e-05
8.2041091e-05
9.9016462e-05
9.9972087e-05
7.5956114e-05
9.1519703e-05
8.3489734e-05
0.00020229555
0.00020472361
0.00020258682
0.00019915613
0.00017872803
0.00019857516
0.00014817335
0.00016181945
0.00016152943
7.850677e-05
9.8117871e-05
8.7010186e-05
9.3144744e-05
0.00010056814
9.3129231e-05
8.0305294e-05
8.7023252e-05
9.7862161e-05
0.00013794158
0.0001421718
0.00012772664
0.00013205488
0.00010950721
0.00011832339
7.8678764e-05
9.9838028e-05
9.6643274e-05
8.0263872e-05
0.00010048143
9.8688426e-05
0.00033911058
0.0013268234
0.00057748426
0.00038239232
0.00019244418
0.0001880818
0.00016066206
0.00015747843
0.00015730364
0.00011027589
0.00010020827
9.5269552e-05
0.00010882005
0.00094350481
0.00020395784
9.2397772e-05
0.000128665
5.5955255e-05
0.0002545044
4.9734073e-05
6.0175992e-05
5.2125698e-05
3.7683075e-05
5.5092863e-05
4.1509922e-05
0.0001069298
0.00012708672
9.5886981e-05
0.00012629439
7.8581097e-05
7.1896318e-05
7.2452336e-05
7.7797572e-05
5.4083259e-05
5.773219e-05
5.8040638e-05
5.3819408e-05
0.0001078584
0.00011829697
0.0001188032
0.00010484676
4.4080779e-05
4.1122899e-05
4.1272497e-05
4.3908328e-05
5.8441378e-05
6.2379551e-05
4.8331764e-05
4.5446544e-05
8.1915759e-05
7.6337879e-05
0.00010527277
0.0001148185
0.00014416688
0.0001220468
0.00012149714
0.00011202168
0.00011137038
0.00011667779
0.0001182274
0.00012205023
0.00012149115
7.1711675e-05
7.7997065e-05
7.8856426e-05
7.2553016e-05
8.1823781e-05
7.6792801e-05
7.0437897e-05
8.0345951e-05
8.0588143e-05
7.3269631e-05
0.00011153456
0.00011204121
8.0594083e-05
4.4181422e-05
4.1753318e-05
4.1770361e-05
4.3643622e-05
4.1320276e-05
0.00010375147
0.00010388788
0.00010742832
0.00010875272
7.4142436e-05
8.0808576e-05
8.0580581e-05
7.406024e-05
0.00011205222
0.00011156983
4.1034897e-05
4.3664229e-05
4.1295765e-05
4.3954633e-05
4.1557061e-05
4.1543221e-05
6.9061548e-05
7.6173693e-05
7.2782691e-05
4.3083979e-05
4.0701461e-05
4.2514639e-05
8.2432657e-05
4.1163187e-05
4.1750449e-05
5.3438139e-05
4.9676242e-05
5.6737815e-05
5.2102893e-05
8.7129507e-05
6.596765e-05
6.7479366e-05
8.2763559e-05
5.0456952e-05
6.138162e-05
6.2446361e-05
4.9802899e-05
9.7155589e-05
0.00013130007
0.00014175371
8.9831147e-05
4.7282144e-05
4.6555683e-05
5.1981865e-05
6.3415865e-05
4.8883029e-05
8.5441545e-05
6.8096491e-05
9.3676588e-05
0.00013245519
6.7636376e-05
8.4668117e-05
8.7374582e-05
6.7611253e-05
4.9382201e-05
8.9436692e-05
8.7633091e-05
7.6768931e-05
7.6128915e-05
6.0448797e-05
8.5054419e-05
8.9329362e-05
8.3883502e-05
6.6575438e-05
8.7928733e-05
9.4253935e-05
8.9038237e-05
6.7238212e-05
9.8155065e-05
0.00014418487
9.947989e-05
0.00014237227
4.8879603e-05
8.5883775e-05
9.2595044e-05
9.5490593e-05
6.0606506e-05
7.5653335e-05
7.0352427e-05
4.7014198e-05
4.755472e-05
6.462605e-05
9.3790821e-05
0.00013250543
9.3301341e-05
0.00012875001
7.9397286e-05
8.6030043e-05
6.6696917e-05
7.0995553e-05
7.3051092e-05
6.7133202e-05
8.4777245e-05
7.6548922e-05
0.00013483203
0.00014071095
9.4286193e-05
9.7490788e-05
6.9814598e-05
8.9047686e-05
8.8043611e-05
6.7874962e-05
0.00014418604
0.00014208784
9.9485251e-05
9.828039e-05
5.3959933e-05
5.0457634e-05
6.2005915e-05
5.7183795e-05
5.793375e-05
6.2369072e-05
5.0230548e-05
5.3335049e-05
0.00010962169
9.5656594e-05
0.00017258419
0.00010003841
0.00011979163
0.00014246393
9.3548277e-05
9.7220891e-05
4.4315389e-05
4.7132599e-05
4.0818307e-05
4.1515639e-05
4.6935528e-05
4.3569777e-05
5.4806727e-05
5.5364377e-05
5.9158399e-05
6.6650563e-05
4.5966502e-05
5.144414e-05
4.3207341e-05
7.8829924e-05
8.8251722e-05
7.3185291e-05
7.1283817e-05
0.00010363467
9.5868754e-05
0.00011146959
0.00019415166
4.7671855e-05
4.8608856e-05
8.6226241e-05
7.9606572e-05
7.1112515e-05
7.0537195e-05
6.0981502e-05
0.00010550866
6.8086365e-05
6.9064272e-05
7.72081e-05
0.00014384164
0.00012232879
0.00012071825
0.00014319446
0.00013030051
0.00011334799
0.00011158857
0.00012869742
0.00013704171
0.00011499556
0.00013901985
0.00011956661
0.00014383439
0.00012232964
0.00014313277
0.00012065974
7.1622536e-05
6.2174119e-05
7.2245132e-05
7.044245e-05
6.5706711e-05
7.707327e-05
8.5623136e-05
8.655527e-05
7.9574828e-05
6.6966081e-05
7.3242234e-05
5.1413606e-05
7.2470315e-05
5.5004536e-05
8.830567e-05
7.8090153e-05
8.3998398e-05
7.2227167e-05
6.7918359e-05
7.9988175e-05
8.8489092e-05
8.8854173e-05
8.0747595e-05
7.3449883e-05
7.03095e-05
0.00011075463
9.8830786e-05
9.926412e-05
0.00011229379
5.0983391e-05
5.4780601e-05
4.4454225e-05
4.9110781e-05
4.1686668e-05
4.1697975e-05
4.505007e-05
4.8327748e-05
4.2371054e-05
0.00010421251
9.2995324e-05
9.2781214e-05
0.00010474295
0.00010602717
9.5428525e-05
0.00010990761
9.6528541e-05
7.3670298e-05
6.7010457e-05
8.0829729e-05
8.888577e-05
8.8549564e-05
8.0154529e-05
6.774709e-05
7.3753403e-05
0.00011229623
9.9285219e-05
0.00011085263
9.8881754e-05
4.0735121e-05
4.3058851e-05
4.6022796e-05
4.1450267e-05
4.6366559e-05
4.3825461e-05
4.1605213e-05
4.1519801e-05
6.9177576e-05
8.3570101e-05
7.63604e-05
7.2917126e-05
7.0180598e-05
4.1904497e-05
4.0562422e-05
6.4855301e-05
4.2397174e-05
8.380148e-05
5.5682957e-05
5.9138825e-05
8.2326938e-05
4.1214158e-05
4.2828217e-05
8.1246718e-05
5.9219414e-05
4.7690322e-05
6.1813418e-05
5.993786e-05
4.8737415e-05
0.00075136211
0.0015244642
0.0021123103
0.00037925614
0.00057942959
0.25934769
0.0079031946
0.00058235968
0.0017269653
0.00017127415
0.00069019817
0.00011826536
0.0010358576
0.00069998163
0.017180859
0.0023862494
0.00022532865
0.0004284146
0.00057521019
0.00096731457
0.00025129862
0.0020391926
0.00021765347
0.00028813518
0.00030058249
0.0011203443
0.00011039263
0.00043371099
0.00071165934
0.00039564145
0.00024946258
0.00024546625
0.00029795909
0.0030274718
0.00083817307
0.0023023581
0.0022461566
0.0019426854
0.00042639096
0.0037220481
0.0010825524
0.0013824295
0.0010824966
0.0020687653
0.0028527467
0.00052956837
0.0007627512
0.0019829112
0.0016555975
0.001475654
0.00021567562
4.9176751e-05
4.0612571e-05
9.9006929e-06
9.7439653e-06
7.7165949e-06
4.8601637e-05
4.253322e-05
7.929095e-06
4.7424214e-06
4.0091634e-05
7.7948237e-06
7.4941016e-05
6.7765859e-06
2.5980596e-05
2.6107613e-05
1.2405427e-05
3.3622933e-05
8.5650118e-06
5.1282589e-06
4.3828831e-06
5.6826158e-06
5.5361227e-06
3.1372637e-06
3.1131109e-06
1.7434399e-06
3.026197e-06
2.830183e-06
1.9546825e-06
1.9687813e-06
0.00030097525
1.8403873e-05
1.9300663e-05
1.830533e-05
1.9092385e-05
5.7411674e-06
3.9646621e-06
1.5623781e-05
4.8291882e-06
5.6619908e-06
1.9000528e-05
5.7440061e-06
1.5760049e-05
5.6775387e-06
1.9296007e-05
1.9059723e-05
2.1278519e-05
2.1168154e-05
1.7915152e-05
1.943643e-05
1.7784951e-05
2.127939e-05
4.4987014e-06
4.5744725e-06
4.6040375e-06
5.7470696e-06
4.7979217e-06
5.4992511e-06
5.8701792e-06
5.2887684e-06
5.0200274e-06
1.9291773e-05
1.932355e-05
1.605686e-05
4.9417004e-06
5.7365007e-06
5.3854465e-06
5.2181712e-06
6.0303467e-06
9.7404516e-06
1.8988372e-05
1.9267509e-05
1.9233308e-05
8.2505426e-06
5.6338684e-06
6.3558682e-06
5.5583817e-06
5.744137e-06
6.0979987e-06
5.4394925e-06
2.6324211e-05
1.6402262e-05
1.4785904e-05
1.598051e-05
1.5709769e-05
1.6310543e-05
1.6494878e-05
1.6559775e-05
1.5757324e-05
1.6551423e-05
4.7305844e-06
4.7047772e-06
4.9596575e-06
5.452704e-06
5.6258512e-06
5.3397926e-06
5.5520962e-06
5.7411048e-06
4.8715643e-06
1.8536569e-05
1.8478351e-05
1.8609468e-05
1.9296352e-05
5.7396943e-06
5.2910102e-06
1.8915578e-05
5.2855463e-06
1.8443956e-05
1.8185875e-05
1.8334685e-05
3.9917377e-06
4.1559489e-06
4.1827494e-06
2.4387582e-05
6.843189e-06
1.6323892e-05
4.8319876e-06
1.9067107e-05
5.3868829e-06
5.6578754e-06
1.8940121e-05
5.2265625e-06
5.2432549e-06
5.5544276e-06
5.7334755e-06
5.5436355e-06
5.7234634e-06
5.4616032e-06
5.535099e-06
1.9290097e-05
5.7403131e-06
1.8867085e-05
5.2653437e-06
1.8869456e-05
5.2730019e-06
1.8051744e-05
1.8220741e-05
1.8235429e-05
4.3594738e-06
4.602452e-06
4.3839027e-06
1.9806299e-05
5.7811452e-06
1.8897665e-05
5.2664868e-06
1.8962528e-05
5.2897908e-06
1.7514979e-05
1.8381597e-05
1.8731806e-05
4.9788932e-06
4.8475812e-06
5.1195207e-06
5.6762575e-06
1.8903353e-05
5.4269578e-06
5.3010387e-06
5.7441195e-06
1.9300463e-05
5.2890566e-06
5.2871595e-06
5.6949697e-06
5.2312064e-06
5.2439482e-06
1.9290921e-05
5.7405292e-06
5.2760906e-06
5.28284e-06
5.7106279e-06
5.2670222e-06
5.25602e-06
1.9253259e-05
2.1370453e-05
1.9326335e-05
5.3652121e-06
5.5029674e-06
5.3519274e-06
1.9549084e-05
5.2418294e-06
5.4088725e-06
5.2845964e-06
1.9154969e-05
1.9027935e-05
1.8702564e-05
1.8756369e-05
4.1037828e-06
4.7174133e-06
4.2986869e-06
4.8621784e-06
4.6608895e-06
4.4607503e-06
1.9555176e-05
1.9005492e-05
1.9336306e-05
5.2395028e-06
4.931383e-06
5.1970855e-06
5.2518499e-06
4.9052667e-06
5.2530651e-06
5.364474e-06
5.5550155e-06
5.3611392e-06
5.5503983e-06
5.349458e-06
5.3562101e-06
5.3031174e-06
5.5094078e-06
5.3185814e-06
5.3406216e-06
5.5222038e-06
5.330418e-06
4.1712461e-05
5.5999428e-06
3.4537522e-06
4.2534096e-06
3.1408123e-05
7.9816347e-06
3.9677919e-05
2.248195e-05
7.2679428e-06
3.7392027e-05
2.1149178e-05
7.6132542e-06
7.631645e-05
3.1812845e-05
1.1609895e-05
6.3001827e-05
4.3665375e-05
6.2048675e-05
7.0445954e-06
5.3359208e-06
5.6348366e-06
6.5133483e-06
8.2189334e-06
2.9651343e-06
3.1592048e-06
3.3042086e-06
2.8650936e-06
1.8458291e-05
1.1524577e-05
1.5937325e-05
1.8387448e-05
1.8556863e-05
2.1453726e-05
1.8562091e-05
2.1457762e-05
1.7911867e-05
2.0353456e-05
1.8066489e-05
6.9351693e-05
7.3558991e-05
6.9339789e-05
1.8584624e-05
1.8511794e-05
1.8639158e-05
1.5304172e-05
1.7343584e-05
1.7023252e-05
1.8511898e-05
1.8299025e-05
1.8411342e-05
1.8528876e-05
1.8686529e-05
1.8659234e-05
1.8547139e-05
1.8691113e-05
1.8675398e-05
1.5253691e-05
1.6961095e-05
1.7720316e-05
1.7910017e-05
1.7606839e-05
1.8193165e-05
1.8117772e-05
1.8277469e-05
1.264704e-05
1.3073432e-05
2.1424538e-05
1.9404555e-05
1.9377378e-05
1.929605e-05
2.139643e-05
1.9353679e-05
2.1437365e-05
1.9408871e-05
1.9391559e-05
1.7886806e-05
1.8218551e-05
1.7769363e-05
1.9213301e-05
1.9076603e-05
1.8436866e-05
1.872973e-05
0.0024801281
0.0018283885
0.00137826
9.1811822e-05
3.7400778e-05
2.8913879e-05
5.093811e-06
1.1293166e-05
1.2734578e-05
1.2187861e-05
4.8762966e-06
1.6299231e-05
2.8105039e-06
4.8017315e-06
1.2866606e-06
1.625153e-06
0.00031754826
0.00026779764
0.00054504255
1.373741e-05
1.3937104e-05
1.3489998e-05
1.4855759e-05
1.5562737e-05
3.3578475e-06
3.3513751e-06
3.330486e-06
3.3470122e-06
3.3575762e-06
3.3450309e-06
4.2487722e-06
3.3040639e-06
3.5635823e-06
3.592686e-06
3.3289788e-06
3.4692844e-06
4.1646544e-06
3.770337e-06
4.3557616e-06
1.3888932e-05
3.6137131e-06
3.6354735e-06
3.6472303e-06
1.393221e-05
3.6403181e-06
3.6459558e-06
1.3410317e-05
3.5647008e-06
3.5787207e-06
4.1266801e-06
3.7192625e-06
4.3546436e-06
3.4741682e-06
3.3568631e-06
3.4730476e-06
3.3546955e-06
3.4675101e-06
3.4708247e-06
3.4454608e-06
3.3361216e-06
3.4514831e-06
3.463063e-06
3.3417508e-06
3.4576224e-06
3.4743184e-06
3.3544628e-06
3.4738189e-06
3.3488117e-06
3.4755187e-06
3.4734281e-06
3.4416712e-06
3.3433392e-06
3.4450158e-06
3.5299407e-06
3.3861999e-06
3.4659959e-06
4.502007e-06
4.0013133e-06
4.3166057e-06
4.0596039e-06
3.8748077e-06
4.166545e-06
4.7093675e-06
4.5618304e-06
4.9338348e-06
4.7802999e-06
5.1754377e-06
3.6231965e-06
4.0378255e-06
4.0728924e-06
3.6298396e-06
4.089532e-06
4.0812506e-06
3.6462739e-06
4.100337e-06
4.1016337e-06
3.6439227e-06
4.0948558e-06
4.0989567e-06
3.6370683e-06
4.0978596e-06
4.0608407e-06
3.592736e-06
3.5804793e-06
3.9890555e-06
3.5818572e-06
3.9794422e-06
3.6134131e-06
3.9506881e-06
4.3389645e-06
3.7785664e-06
3.6454581e-06
3.8417933e-06
4.1593499e-06
4.5593305e-06
4.5915897e-06
4.8127152e-06
3.7858257e-06
1.3801873e-05
2.9942303e-06
3.3468093e-06
3.2644401e-06
3.4127892e-06
4.2847475e-06
3.4876412e-06
3.3610002e-06
3.5361061e-06
3.691268e-06
3.9330959e-06
5.5177089e-06
3.8132039e-06
3.6203919e-06
3.6585089e-06
3.4684893e-06
3.4547977e-06
3.5378166e-06
3.8857276e-06
3.6904327e-06
3.7172297e-06
4.0545343e-06
3.5279565e-06
3.6177993e-06
0.0005567121
0.00096222342
6.8822978e-05
9.9790331e-05
2.7306063e-05
1.7680733e-05
0.0005349408
0.00026545008
0.0016568673
0.0001681028
0.00011297599
0.0002376727
0.00044988245
4.533235e-05
1.2579749e-05
0.00012652912
0.00014972692
0.00011017196
0.00012231172
0.00018568409
0.00012190479
9.5328022e-05
3.6497741e-05
0.00014451605
7.772464e-05
2.5284373e-05
0.00016029118
0.00017423623
0.00014511942
9.5588595e-05
0.00088160387
0.0060134337
0.00020926517
0.0002645408
0.00013695812
0.00012757502
0.00066991738
8.8537931e-05
0.00018054089
0.00019377104
8.1245444e-05
0.0005206321
0.00042949805
0.00025471586
2.0222461e-05
9.4567381e-05
3.2910636e-05
0.00015910995
0.00028799417
0.00023228154
0.0002680778
0.00019061176
0.00027810752
0.00045936283
0.00017891571
0.00015145144
0.00023439187
0.0014936352
0.0013202736
0.0019516678
0.00020378479
0.00032854051
0.00019250492
0.00050616716
0.00023053487
6.5471422e-05
0.00018158668
9.5620599e-05
0.00010884174
0.0001932761
0.00017691619
0.00051185408
0.00035153027
0.00041451373
9.6912214e-05
0.00037409366
0.00018132967
0.00014694166
0.0057657802
0.00074218766
0.00054781438
0.00048635183
0.00040759461
0.00067332836
0.00051605125
0.00029220733
0.00026381221
0.00040035756
0.00034180711
0.00056673841
0.00017675129
0.00015213662
7.4216018e-05
8.3070505e-05
0.0010933577
)


881
(
0.013268298
0.00062198738
0.0001604194
0.0012863186
5.6314178e-05
0.00033795833
0.00014703092
0.0037006549
3.2165771e-05
3.1679823e-06
8.4332498e-05
5.5219511e-05
0.00027078453
4.8846541e-06
5.2330038e-05
2.5075027e-05
0.00062459064
0.0012320863
0.00028187778
6.9633033e-05
0.0010636288
0.00014529316
0.0008649982
0.00042861497
0.00012565917
0.00077285921
0.00086454032
8.6090245e-05
0.00059974145
0.00021129196
6.8107463e-05
0.00048220832
2.4066557e-05
3.0976274e-05
5.8684247e-05
3.2170498e-05
9.8503466e-06
6.5404832e-05
0.00016302457
1.2313075e-05
8.1562942e-05
0.00034882911
0.0034975413
0.00099277939
0.00050752322
0.00089632004
0.0010750053
0.0010692011
0.00099553298
0.00071209946
0.00025348867
0.001774078
0.0030321589
0.0034245172
0.002442598
0.000145489
0.00019940576
0.00010128803
0.00011883965
4.1084384e-05
8.1505624e-05
0.00096146738
0.00079444633
0.0029825759
0.0007772031
0.0010325407
0.00097112432
0.00084790007
0.00074168853
0.00015483612
0.00033452615
0.00016802132
0.00012717609
7.6390728e-05
0.00016182132
0.00029011156
0.00041961446
0.00032038034
0.00044557805
0.00021940972
0.00025350144
0.00020388253
0.0002302901
0.00028841641
0.00023759907
0.00071235717
0.00034885744
0.002115911
0.0014206406
0.0017014326
0.00088558782
0.0009984709
0.00088088386
0.00077438085
0.0009692404
0.00084572765
0.0011370828
0.0010904807
0.0011592078
0.0010680734
0.0010677165
0.0011400955
0.00017846294
0.00013343179
0.00016468037
0.00015831687
0.00022963283
0.00018350809
0.00086682266
0.00091359034
0.00083189854
0.00085603614
0.0007865223
0.0010864184
0.00097433652
0.0010201443
0.0009156614
0.00097932425
0.00095863468
0.00018870157
0.00016172656
0.00019583502
0.00029773334
0.0002730289
0.00024686702
0.00042924906
0.00035495379
0.00048439266
0.0011985396
0.0013005343
0.0012223072
0.0011435213
0.001156389