/*--------------------------------*- C++ -*----------------------------------*\
  =========                 |
  \\      /  F ield         | OpenFOAM: The Open Source CFD Toolbox
   \\    /   O peration     | Website:  https://openfoam.org
    \\  /    A nd           | Version:  8
     \\/     M anipulation  |
\*---------------------------------------------------------------------------*/
/*   Windows 32 and 64 bit porting by blueCAPE: http://www.bluecape.com.pt   *\
|  Based on Windows porting (2.0.x v4) by Symscape: http://www.symscape.com   |
\*---------------------------------------------------------------------------*/
FoamFile
{
    version     2.0;
    format      ascii;
    class       scalarListList;
    location    "constant/vegetation";
    object      kcLAIboundary;
}
// * * * * * * * * * * * * * * * * * * * * * * * * * * * * * * * * * * * * * //


5
(

75
(
0
0.010790859
0.010372393
0
0.05559668
2.2250607
1.465173
0.6574475
0.0059518956
1.4396733
0.89502278
0.00087146419
0
0.04477495
0.73956404
0.071651141
0
1.5096716
2.3410221
0.0004718801
1.7229125
1.4382302
2.0650334
0.044515853
2.5850701
1.5191182
1.5663059
1.028234
2.2379996
0.52627711
2.6810734
0.14174945
0.95778722
0.97769745
1.2252657
1.8140644
0.52819816
1.5434195
0.10071402
0.72555425
1.6153566
2.3298115
0.88084572
0.33056635
1.646513
1.0368742
0.31551034
0.51529975
2.3216719
1.2354344
0.26390376
0.271689
0.34757603
0.26456319
0.53737286
0.5405191
0.35778442
0.39880763
1.2100288
0.96729207
0.6650408
0.71585296
0.55791795
0.41290394
0.64018968
1.1768754
0.55603572
0.83037359
0.52494646
0.37082956
0.27228222
0.29960537
0.29992314
1.663968
0.51420174
)


75
(
0
0.076590746
0.050864989
0
0.0051014214
1000
0.71478235
0.14933272
0
0.58794773
0.28467976
0.00084596542
0
0.0035451289
0.9849984
0.71677059
0.0064751078
2.31392
2.0292359
0.14203068
1.7041667
1.1194701
1.2804422
0.45081971
2.1381977
0.78222081
2.0757546
2.1583336
1.5511856
0.35941619
2.2085271
0.26467611
0.7109988
0.72766766
1.3804921
1.3211541
0.4654453
1.1228299
0.087551672
0.51803873
1.1783255
1.9993669
0.83940223
0.32914888
1.3890731
0.77901998
0.31435877
0.66197333
2.1798458
1.742428
0.26888231
0.2385714
0.29832668
0.24050204
0.41893106
0.43853271
0.31477426
0.45405019
1.0193661
1.0594461
0.54420808
0.5802081
0.55662986
0.53119425
0.83755793
1.4367234
0.60446646
1.5021501
0.47231089
0.60882556
0.25072456
0.30858615
0.40854375
1.9869855
0.79731346
)


75
(
0
1000
1000
0
1000
1000
1000
0.89398343
0.0023273459
1.016607
1.6246575
0.00047709514
0
0.022951154
1000
1.8250987
0.00056963514
1000
1000
0.36863432
1.28098
0.87244034
0.59559206
0.76752212
1.4357511
0.2404288
1000
1000
1.0276783
0.32079157
1000
0.15098957
1000
0.60267089
1.2925966
1000
0.47331861
0.8833253
0.2598137
0.40455864
0.68178676
1.4439469
0.55517644
0.4238213
0.97367104
0.53196759
0.3408659
1000
1000
1.8915949
0.34804028
0.37177628
0.30662679
0.2421245
0.42243151
0.40179217
0.23465261
0.56872846
0.89464718
1.0694818
0.53587543
0.43886904
0.85907596
0.52161109
1.1587142
1.5618183
0.52236896
1.6849098
0.4665714
0.65999934
0.20393476
0.34993731
0.62322958
1000
1.1195095
)


75
(
0
1000
1000
0
0
1000
1000
1000
1000
1000
1000
1000
0
1000
1000
1000
1000
1000
1000
1000
1000
1000
1000
1000
1000
1000
1000
1000
1000
1000
1000
1000
1000
0.87497809
1000
1000
1000
1.7884133
0.27843731
0.27334344
1.8975632
2.0548761
1.0339602
1000
1.1465367
0.43310793
0.42019477
1000
1000
1000
0.38915226
1000
0.22872137
0.18201873
0.3512565
0.36882408
0.24666659
1000
0.59900535
0.84030864
0.37465906
0.58757289
0.98886506
1000
1000
1000
1000
1000
0.3236099
1.0184815
0.24257767
0.31040545
0.72731127
1000
1000
)


75
(
0
1000
1000
0
0
1000
0
1000
1000
1000
1000
1000
0
0
1000
1000
1000
1000
1000
0
1000
1000
1000
1000
1000
1000
1000
1000
1000
1000
1000
1000
1000
1000
1000
1000
1000
1000
1000
1000
1000
1000
1000
1000
1000
1000
1000
1000
1000
1000
1000
1000
1000
0.19701239
1000
1000
0.24177045
1000
1000
0.85382823
1000
1000
1000
1000
1000
1000
1000
1000
0.38409885
1000
0.28295157
0.38522754
1000
1000
1000
)

)


// ************************************************************************* //
