/*--------------------------------*- C++ -*----------------------------------*\
  =========                 |
  \\      /  F ield         | OpenFOAM: The Open Source CFD Toolbox
   \\    /   O peration     | Website:  https://openfoam.org
    \\  /    A nd           | Version:  8
     \\/     M anipulation  |
\*---------------------------------------------------------------------------*/
/*   Windows 32 and 64 bit porting by blueCAPE: http://www.bluecape.com.pt   *\
|  Based on Windows porting (2.0.x v4) by Symscape: http://www.symscape.com   |
\*---------------------------------------------------------------------------*/
FoamFile
{
    version     2.0;
    format      ascii;
    class       scalarListList;
    location    "constant/vegetation";
    object      skyViewCoeff;
}
// * * * * * * * * * * * * * * * * * * * * * * * * * * * * * * * * * * * * * //


5
(

75
(
0
188
188
188
188
188
188
188
188
188
188
188
188
188
188
188
188
188
188
188
188
188
188
188
188
188
188
188
188
188
188
95.784611
95.468955
101.15519
99.226021
111.94565
119.89809
135.59219
101.08633
95.88085
124.52282
152.44831
114.11438
105.52463
118.15123
98.148729
96.882356
128.10922
145.22201
101.30625
173.7249
124.29807
110.76861
131.81558
111.64901
100.80635
135.66686
131.94898
99.356231
99.26528
98.437376
99.198524
138.83019
102.651
106.38178
94.835745
119.77467
106.93322
115.6311
121.08059
114.81403
152.19828
131.13052
122.08166
106.15637
)


75
(
0
227
227
227
227
227
227
227
227
227
227
227
227
227
227
227
227
227
227
227
227
227
227
227
227
227
227
227
227
227
227
115.65482
115.27368
122.13951
119.81014
135.16841
144.77056
163.72035
122.05636
115.77103
150.35468
184.07323
137.78705
127.41537
142.66132
118.50937
116.98029
154.68506
175.34785
122.32191
209.76358
150.0833
133.7472
159.1603
134.81024
121.71831
163.81052
159.32138
119.96736
119.85755
118.8579
119.77694
167.63007
123.94563
128.45034
114.50912
144.62155
129.11617
139.6184
146.19838
138.63184
183.77133
158.33313
147.40711
128.17817
)


75
(
0
192
192
192
192
192
192
192
192
192
192
192
192
192
192
192
192
192
192
192
192
192
192
192
192
192
192
192
192
192
192
97.822581
97.500209
103.30743
101.33721
114.32747
122.44911
138.47713
103.2371
97.920868
127.17224
155.69189
116.54235
107.76983
120.66509
100.237
98.943682
130.83494
148.31184
103.4617
177.42118
126.94271
113.12539
134.62017
114.02452
102.95117
138.55339
134.75641
101.47019
101.37731
100.53179
101.30913
141.78403
104.83507
108.64522
96.853527
122.32307
109.20839
118.09134
123.65678
117.25689
155.43654
133.92054
124.67914
108.41502
)


75
(
0
149
149
149
149
149
149
149
149
149
149
149
149
149
149
149
149
149
149
149
149
149
149
149
149
149
149
149
149
149
149
75.914399
75.664225
80.17087
78.6419
88.72288
95.025611
107.46402
80.116291
75.990673
98.690956
120.8234
90.441718
83.633879
93.641134
77.788089
76.78442
101.53337
115.09617
80.290591
137.68622
98.512829
87.790015
104.47086
88.487777
79.894397
107.52321
104.57659
78.745098
78.673014
78.016856
78.620107
110.03031
81.356381
84.313221
75.162372
94.9278
84.750264
91.643798
95.962812
90.996229
120.62523
103.92792
96.756207
84.13457
)


75
(
0
107
107
107
107
107
107
107
107
107
107
107
107
107
107
107
107
107
107
107
107
107
107
107
107
107
107
107
107
107
107
54.515709
54.336054
57.57237
56.474385
63.713746
68.239868
77.172149
57.533176
54.570484
70.872029
86.765795
64.948079
60.059229
67.245647
55.861245
55.14049
72.913224
82.652952
57.658344
98.875343
70.744112
63.043836
75.022698
63.544914
57.373829
77.214651
75.098622
56.548493
56.496728
56.025528
56.458735
79.015057
58.42371
60.547078
53.975663
68.169629
60.860928
65.811318
68.912892
65.346285
86.623488
74.632799
69.482645
60.418785
)

)


// ************************************************************************* //
