/*--------------------------------*- C++ -*----------------------------------*\
  =========                 |
  \\      /  F ield         | OpenFOAM: The Open Source CFD Toolbox
   \\    /   O peration     | Website:  https://openfoam.org
    \\  /    A nd           | Version:  8
     \\/     M anipulation  |
\*---------------------------------------------------------------------------*/
/*   Windows 32 and 64 bit porting by blueCAPE: http://www.bluecape.com.pt   *\
|  Based on Windows porting (2.0.x v4) by Symscape: http://www.symscape.com   |
\*---------------------------------------------------------------------------*/
FoamFile
{
    version     2.0;
    format      ascii;
    class       scalarListList;
    location    "constant/vegetation";
    object      solarLoadFineFaces;
}
// * * * * * * * * * * * * * * * * * * * * * * * * * * * * * * * * * * * * * //


5
(

569
(
717.08284
717.08284
717.08284
717.08284
717.08284
77.488588
717.08284
717.08284
165.6734
717.08284
717.08284
717.08284
717.08284
717.08284
717.08284
717.08284
717.08284
342.27939
717.08284
717.08284
717.08284
717.08284
158.46279
77.488588
69.004331
717.08284
165.6734
717.08284
717.08284
128.03183
717.08284
128.03183
90.936183
717.08284
128.03183
717.08284
717.08284
717.08284
342.27939
128.03183
717.08284
717.08284
717.08284
717.08284
717.08284
717.08284
717.08284
54.061445
156.9729
717.08284
156.9729
717.08284
717.08284
717.08284
717.08284
717.08284
717.08284
717.08284
717.08284
717.08284
717.08284
149.73776
149.73776
158.46279
69.004331
69.004331
69.004331
717.08284
717.08284
76.492429
76.492429
76.492429
170.19778
170.19778
717.08284
717.08284
256.45607
717.08284
717.08284
717.08284
717.08284
717.08284
717.08284
717.08284
717.08284
717.08284
342.27939
149.73776
49.112715
49.112715
717.08284
717.08284
717.08284
717.08284
77.488588
77.488588
49.112715
717.08284
717.08284
717.08284
717.08284
717.08284
717.08284
717.08284
717.08284
371.57245
169.95234
169.95234
717.08284
49.112715
158.46279
158.46279
170.19778
76.492429
717.08284
90.936183
90.936183
90.936183
717.08284
717.08284
717.08284
717.08284
54.061445
169.95234
54.061445
54.061445
54.061445
717.08284
717.08284
717.08284
717.08284
717.08284
717.08284
133.95136
0
282.16917
0
0
104.29876
0
0
251.94373
0
0.37370872
0
0
0
145.36809
0
0
0
0
154.31755
0
0
128.46746
0
0
288.86731
0
0
0
0
0
0
0
177.9566
149.64285
0
0
0
719.13516
752.05927
558.95746
575.22733
684.36825
33.17942
0
0
0
0
0
0
0
0
0
0
0
0
0
293.51585
395.19623
202.30766
0
139.45598
186.96045
284.45842
0
31.894695
315.08283
493.18516
303.40829
368.35698
425.4464
371.87632
454.10428
494.85851
505.84636
644.97253
682.57557
469.83857
340.26352
192.91121
337.36033
232.55732
0
0
1.7730976
14.165436
125.03796
0
0
0
0
0
0
0
0
0
99.490816
0
32.698837
0
0
140.07947
0
0
0
0
0
0
0
0
0
0
162.00705
146.68281
0
53.502319
0
115.28819
0
0
0
19.057352
243.91377
167.64807
0
0
0
0
300.85662
274.35509
0
0
0
0
0
0
0
0
186.1338
243.36494
382.54564
405.56272
583.98956
473.5304
0
0
0
2.1232148
0
67.628158
28.557292
8.1543028
19.896982
65.080059
184.65487
393.66931
298.13747
87.041331
39.817545
175.88377
0
52.972269
91.290643
289.10554
0
0
0
13.281464
104.31538
101.53986
9.8195909
49.509534
46.316629
219.48722
754.17451
702.64448
661.06367
308.76072
308.48348
395.70956
478.4707
365.95564
200.45967
369.35481
684.75121
484.69763
639.40995
450.62771
214.54097
46.109094
0
118.15511
45.675159
0
0
41.601194
130.03683
0
0
449.99324
0
0
41.736421
0
0
126.63541
40.608488
0
0
652.54828
0
0
0
0
0
0
233.28582
237.28009
270.64551
363.85861
0
0
4.301665
59.116871
92.160204
0
0
0
0
0
0
0
0
0
0
0
0
0
24.468382
0
0
29.638628
0
0
0
0
0
0
0
0
0
0
0
0
0
0
0
0
0
0
0
169.52403
16.736956
110.91219
0
16.762517
0
0
0
0
0
0
0
0
0
0
0
0
52.571043
85.363834
0
0
186.9645
118.27743
242.36889
186.96673
215.70431
315.50678
0
31.940901
184.59953
0
203.50903
199.1527
373.59517
0
0
0
0
0
0
0
164.71332
609.79417
579.89823
412.57318
502.07952
455.90308
358.48917
0
0
0
0
0
0
0
0
0
0
0
0
0
0
0
0
0
0
0
0
0
0
0
0
0
0
0
0
0
0
0
0
292.2759
345.37503
216.70239
109.99189
10.132029
20.14352
0.66466985
394.5225
512.75893
0
0
0
0
0
0
0
23.086068
0
0
0
14.254658
55.111144
389.37748
459.79888
260.99726
335.63258
110.93363
101.37848
171.63971
135.60079
97.524933
220.84423
256.85696
263.37764
32.179148
0
94.47763
30.578728
0
0
0
80.339806
132.57637
321.23362
108.98439
125.00708
114.90025
259.61189
344.75354
208.25993
199.90004
0
547.64399
234.17944
403.3117
293.52129
0
0
66.551408
151.3601
119.86138
72.269991
0
26.892827
266.73552
220.19981
201.6505
680.98019
583.33712
575.17615
530.24437
587.18881
300.78367
435.77543
264.08049
478.5562
394.9879
407.03594
476.72423
346.20134
532.1413
0
0
0
91.875994
0
0
426.53924
319.58177
226.28269
33.014287
65.80659
15.454393
0
55.314961
)


569
(
585.76158
585.76158
585.76158
585.76158
585.76158
0
585.76158
585.76158
585.76158
585.76158
585.76158
585.76158
585.76158
585.76158
585.76158
585.76158
585.76158
218.7467
585.76158
585.76158
585.76158
585.76158
57.915952
0
76.990108
585.76158
585.76158
585.76158
585.76158
106.56404
585.76158
106.56404
162.79157
585.76158
106.56404
585.76158
585.76158
585.76158
218.7467
106.56404
585.76158
585.76158
582.78098
286.61232
585.76158
585.76158
585.76158
69.042009
585.76158
585.76158
267.92097
585.76158
585.76158
585.76158
585.76158
585.76158
585.76158
585.76158
57.915952
73.490655
585.76158
73.490655
73.490655
57.915952
76.990108
76.990108
76.990108
585.76158
67.66569
124.17939
124.17939
124.17939
191.22347
585.76158
585.76158
585.76158
67.66569
67.66569
585.76158
585.76158
286.04303
286.61232
585.76158
585.76158
585.76158
585.76158
218.7467
73.490655
64.353141
64.353141
585.76158
585.76158
585.76158
585.76158
0
0
64.353141
585.76158
585.76158
585.76158
585.76158
585.76158
585.76158
585.76158
585.76158
585.76158
585.76158
585.76158
585.76158
64.353141
57.915952
57.915952
585.76158
585.76158
585.76158
585.76158
585.76158
162.79157
585.76158
585.76158
585.76158
585.76158
69.042009
585.76158
69.042009
69.042009
69.042009
585.76158
585.76158
585.76158
585.76158
585.76158
585.76158
75.571885
0
196.63285
0
69.154752
16.84657
0
0
137.45256
0
5.4307374
39.976256
0
0
95.012291
0
0
0
37.84944
132.37987
57.720837
0
72.891017
0
0
203.90951
0
0
0
93.522216
24.574203
23.935523
36.140255
232.51648
209.30317
0
0
0
551.49609
642.372
423.31256
487.25108
578.88765
6.202184
0
0
0
0
0
0
0
0
0
0
0
0
0
389.09076
461.27205
304.26636
0
275.33699
310.0036
208.62628
0
51.631369
408.23585
533.38915
254.14706
444.84751
485.65029
268.56255
336.77095
427.62156
445.49475
494.35801
594.56672
366.83559
313.67404
146.55451
264.61312
227.92123
0
118.37646
6.8091201
37.817137
193.74652
0
0
0
0
0
0
0
0
35.604355
220.02983
27.241478
73.396494
0
0
91.479582
0
0
112.57829
74.394278
0
32.400215
0
0
0
0
174.48296
124.55946
59.404544
51.17704
0
27.284003
0
0
69.307227
165.71538
132.34862
20.702127
0
0
110.66316
81.972443
332.80739
311.22897
0
0
0
0
0
0
0
0
138.52345
337.54483
456.99054
459.34421
590.28091
520.94129
0
0
0
4.0167774
0
29.877932
86.893983
19.018206
44.032642
158.68483
289.97819
240.7601
128.74762
47.412234
68.938607
75.287934
0
36.011858
236.67041
213.18658
0
0
0
163.02971
192.59597
190.13874
34.123772
106.39716
103.86264
322.37564
637.42522
646.02068
596.96085
294.34236
256.70241
330.7473
398.81972
442.93147
189.04308
322.49588
588.08467
419.733
602.58958
448.89813
68.25793
9.9482948
138.78414
257.46569
186.68047
0
150.49835
191.29695
239.72854
174.03674
0
384.58923
0
0
191.39757
23.836412
137.87964
243.03489
190.45371
0
0
496.57214
0
0
0
0
0
0
324.06695
346.24846
312.7735
223.59687
0
91.210714
30.585717
7.5011037
169.20788
0
0
0
0
0
0
0
0
0
0
0
0
78.94497
86.95515
0
0
62.806478
0
0
0
115.88551
181.01017
0
0
0
0
0
0
0
18.037462
0
0
0
0
23.251035
23.091054
178.25295
60.632995
219.54918
97.838677
108.6336
0
0
0
0
0
0
0
0
0
0
0
0
49.850896
0
0
0
310.00699
257.56828
353.00833
310.00861
315.79037
408.78571
0
0
123.99108
66.721533
194.45391
54.802665
233.12994
0
0
0
0
0
0
0
70.917412
414.44904
394.91384
218.6168
333.24349
252.05787
157.10846
0
0
0
0
0
0
0
0
0
0
0
0
0
0
0
0
0
0
0
0
0
0
0
0
0
0
0
0
0
0
0
0
222.83936
212.63022
219.63141
132.92493
28.893553
22.992853
5.1239473
450.15673
535.89382
0
0
0
0
0
0
0
0
0
0
0
0
0
202.94425
256.67922
78.453162
135.65905
0
0
0
23.53583
0
29.778131
69.384941
74.788475
0
0
85.37519
0
0
0
0
50.509709
218.46656
379.49472
160.34063
29.321881
0
75.453751
156.94874
18.94845
11.376281
0
365.7065
81.533635
210.75113
104.17909
0
0
0
14.130306
29.871268
0
0
175.75805
373.1597
252.01684
308.09319
569.14608
484.35542
522.06671
535.58272
591.55597
285.44959
402.98894
344.74043
444.66097
444.86856
427.29195
496.73319
401.25499
552.9927
0
0
0
99.527925
0
0
425.53635
288.98949
259.51247
46.856265
50.717268
38.233223
0
0
)


569
(
0
0
536.2201
0
536.2201
0
536.2201
536.2201
0
536.2201
536.2201
536.2201
536.2201
536.2201
536.2201
536.2201
536.2201
0
86.439609
536.2201
536.2201
105.62417
0
0
0
219.32646
0
536.2201
536.2201
148.94315
536.2201
536.2201
536.2201
536.2201
536.2201
536.2201
248.89288
248.89288
0
148.94315
536.2201
0
0
0
536.2201
536.2201
536.2201
536.2201
536.2201
536.2201
536.2201
536.2201
536.2201
536.2201
0
536.2201
248.89288
536.2201
0
0
105.62417
0
0
0
0
0
0
0
0
191.87928
536.2201
536.2201
536.2201
536.2201
536.2201
536.2201
0
0
86.439609
86.439609
86.439609
0
370.89181
0
0
0
0
0
0
0
0
0
0
0
0
0
0
536.2201
536.2201
536.2201
536.2201
536.2201
536.2201
536.2201
536.2201
536.2201
536.2201
536.2201
194.01543
0
0
0
536.2201
536.2201
536.2201
536.2201
536.2201
536.2201
536.2201
536.2201
536.2201
536.2201
536.2201
536.2201
536.2201
127.58638
127.58638
536.2201
536.2201
536.2201
536.2201
536.2201
536.2201
0
0
0
0
229.01788
0
0
0
40.585229
0
3.2758166
79.046562
124.63777
25.63176
48.683993
97.573578
143.92967
0
56.800617
115.12575
203.76993
30.460078
0
0
0
139.54998
0
0
76.705095
252.11591
80.052344
81.557257
56.835016
295.77737
274.48251
0
0
0
462.62904
614.32123
341.10861
453.80598
542.59649
0
0
0
0
0
0
0
0
0
0
0
0
0
0
518.65753
572.74758
433.30412
0
425.89665
450.16403
152.68622
28.634215
86.863846
536.58257
625.288
226.57425
558.01031
593.58525
195.69094
259.76292
404.85186
448.99674
419.59322
585.56092
324.53433
334.68673
133.13911
239.61284
259.82199
0
0
4.1348616
75.027701
177.90467
0
0
0
0
82.993276
0
0
0
87.629295
344.19299
177.18797
198.29888
0
70.459564
46.298754
19.168697
100.31227
271.35978
14.076259
11.639955
197.11142
96.947961
164.06159
98.799805
0
192.66274
106.27094
205.16801
42.332619
0
0
0
0
189.95933
318.18608
37.4072
65.277726
0
0
230.19274
204.42175
387.52322
367.79742
0
0
0
0
0
0
0
0
123.1424
451.7598
570.41274
551.62827
659.44284
618.18459
0
0
0
2.6716759
0
0
159.3074
62.251093
82.321351
268.10365
420.55132
123.08012
9.2662859
0
0
4.9340692
0
85.170589
391.54882
157.68256
73.264409
29.040725
66.742578
317.53245
300.77932
298.35697
71.51659
179.54229
177.31736
453.47228
602.68522
665.31413
599.58539
302.36564
227.20866
298.30298
361.65578
556.25442
211.07319
326.4217
570.82503
416.77296
638.84362
503.93792
0
38.930629
301.40287
410.01958
336.58368
0
311.64449
341.53513
355.85903
319.44196
0
358.17724
0
0
341.61272
189.99704
300.54661
366.181
340.72568
0
0
406.85767
0
0
0
0
0
0
433.06347
477.0137
393.23438
132.2942
0
0
79.467638
36.557418
165.53901
0
0
0
0
24.843284
0
21.736351
0
0
0
0
0
231.97303
210.32425
0
0
92.205713
0
0
26.26356
275.78264
340.59548
105.4293
43.553881
96.056838
0
0
0
0
64.280862
0
28.943903
0
0
128.70854
67.732496
193.4994
94.255474
332.04476
213.48395
191.75116
0
0
0
0
0
50.248059
0
0
0
0
0
0
0
0
0
0
450.1673
410.1126
491.2444
450.16852
432.78327
533.79435
0
0
95.378029
187.67691
219.11308
0
124.89126
0
0
0
0
0
0
0
6.3505441
286.74915
269.53727
66.48042
213.05768
99.153313
0
0
0
0
0
0
0
0
0
0
0
0
0
0
0
0
0
0
0
0
0
0
0
0
0
0
0
0
0
0
0
0
0
196.5722
127.22234
257.33539
179.36745
60.871514
24.019247
4.3971774
542.8608
617.95554
0
0
0
0
0
0
0
0
0
0
0
0
0
64.568187
105.52302
0
0
0
0
0
0
0
0
0
0
0
0
74.892397
0
0
69.975408
68.88398
18.363496
327.06522
479.27424
234.13263
129.0009
0
54.88842
2.8768345
0
0
0
248.69206
21.001755
66.844807
0
0
0
0
0
0
0
0
330.53518
508.97238
317.96216
440.89733
526.0279
440.98988
523.91316
592.80637
658.34951
291.60218
407.72408
446.73708
453.62352
531.1992
483.30191
562.06411
500.13798
633.88952
0
0
0
124.41546
0
0
479.19511
304.06418
327.39047
0
0
61.601956
0
0
)


569
(
0
0
411.8157
0
411.8157
0
411.8157
411.8157
0
411.8157
0
0
0
0
0
411.8157
0
0
0
0
0
0
0
0
0
0
0
0
411.8157
0
0
0
0
0
0
0
0
0
0
411.8157
411.8157
411.8157
411.8157
0
0
0
0
0
0
0
411.8157
0
411.8157
411.8157
0
0
0
0
0
0
0
0
0
0
0
0
0
0
0
0
0
0
0
0
0
0
0
0
0
0
0
0
411.8157
411.8157
0
0
0
0
0
0
0
0
0
0
0
0
0
411.8157
411.8157
411.8157
411.8157
411.8157
411.8157
0
0
0
0
0
0
0
0
0
0
0
0
0
0
0
0
0
0
411.8157
0
0
0
411.8157
0
0
0
0
411.8157
411.8157
0
0
0
0
0
351.69298
0
0
0
0
0
0
225.48507
265.36907
29.514013
10.78409
44.366899
279.41604
0
181.82537
69.960115
308.4279
26.62924
0
0
0
0
0
0
198.58512
370.20701
201.29473
205.00764
185.54255
302.4838
286.12706
0
0
0
308.33594
335.58774
0
0
285.65504
0
0
0
0
0
0
0
0
0
0
0
0
0
0
567.78193
596.68035
497.50366
0
506.7273
514.79512
65.626026
21.002817
119.05392
580.77961
618.42236
155.5331
580.33884
610.09303
0
0
0
266.61799
290.13479
334.56662
0
0
0
0
0
0
0
0
0
0
0
0
0
0
10.852892
0
0
129.61256
232.55767
405.54858
290.03313
281.33442
65.257862
197.1285
11.506427
79.710155
47.428476
386.48159
118.57378
119.2512
324.55121
242.20372
103.15949
13.905237
0
170.19626
61.41675
309.31051
15.93611
0
0
0
0
285.58513
420.93023
0
0
0
0
318.63
299.43392
372.92416
357.75819
0
0
0
0
0
0
0
0
0
488.15268
591.84818
552.72852
626.78342
617.78688
0
0
0
22.610463
0
0
215.48116
105.73897
118.09932
341.54979
488.2227
0
0
0
0
0
0
0
481.73325
70.311086
158.00298
19.682431
149.94758
421.92932
367.97924
365.97022
108.07793
233.30145
231.70618
515.94545
479.03241
583.87719
507.56135
254.42895
154.2663
212.57702
262.8104
578.94007
211.60437
291.29147
473.40543
360.25184
581.47809
488.80664
0
0
412.58278
495.97127
434.28018
0
419.01242
431.41038
407.25738
406.9026
0
0
0
0
431.45126
320.76157
411.89128
423.42626
430.74739
0
0
172.90716
0
0
0
0
0
0
466.5507
527.83607
0
33.341211
0
0
0
0
0
0
0
0
0
65.852272
0
71.022439
0
118.46797
12.885105
0
0
340.24679
290.0047
7.4485434
0
122.41706
0
0
68.464418
390.94892
442.59922
249.34743
11.42234
11.329238
0
0
0
0
147.8858
9.3120127
73.399664
0
0
202.04201
89.432422
168.07884
101.22097
383.03739
284.7257
233.2201
0
0
0
0
0
8.3961238
0
0
0
0
0
0
0
0
0
0
514.79786
496.03821
552.04167
514.79847
474.57901
571.90934
0
0
64.698723
283.92217
220.91353
0
0
0
0
0
0
0
0
0
0
122.08607
105.20946
0
0
0
0
0
0
0
43.575887
51.732756
0
20.219958
0
0
0
0
0
0
0
0
0
0
0
0
0
0
0
0
0
0
0
0
0
0
0
0
0
0
35.069054
0
0
0
0
0
545.46041
607.48685
0
0
0
0
0
0
0
0
0
0
0
0
0
0
0
0
0
0
0
0
0
0
0
0
0
0
0
53.100967
0
38.755201
153.26938
151.36054
35.853573
390.48136
509.82291
280.07504
0
0
0
0
0
0
0
103.79259
0
0
0
0
0
0
0
0
0
0
432.9486
563.97989
343.42637
506.98383
400.78621
325.91358
440.18849
553.81004
622.83137
243.3925
342.04017
471.22306
385.78278
528.77773
456.96617
534.78166
526.3228
618.98894
0
0
0
0
0
0
466.91506
283.29396
353.17289
0
0
0
0
0
)


569
(
0
0
284.42858
0
284.42858
0
284.42858
284.42858
284.42858
284.42858
0
0
0
0
0
284.42858
284.42858
0
0
0
0
0
0
0
0
0
284.42858
284.42858
284.42858
0
0
0
0
0
0
0
0
0
0
0
0
284.42858
284.42858
284.42858
0
0
0
0
0
0
0
284.42858
284.42858
284.42858
0
0
0
0
0
0
0
0
0
0
0
0
0
0
0
0
0
0
0
0
0
0
0
0
0
0
0
284.42858
284.42858
284.42858
0
0
0
0
0
0
0
0
0
0
0
0
0
0
0
284.42858
284.42858
284.42858
284.42858
0
0
0
0
0
0
0
0
0
0
0
0
0
0
0
0
0
0
0
0
0
0
0
0
0
0
0
284.42858
284.42858
284.42858
0
0
0
0
0
0
0
0
0
0
0
0
0
0
0
0
0
0
0
0
0
0
0
0
0
0
0
0
0
0
0
0
0
0
0
0
0
0
0
0
0
0
0
0
0
0
0
0
0
0
0
0
0
0
0
0
0
583.86983
589.38938
533.16392
0
0
0
0
0
152.07009
590.83722
578.9722
0
567.28783
594.71362
0
0
0
0
0
0
0
0
0
0
0
0
0
0
0
0
0
0
0
0
0
0
0
0
0
0
0
0
0
0
0
0
0
0
0
0
0
0
0
0
0
0
0
0
0
0
0
0
0
0
0
0
0
0
0
0
0
0
0
0
0
0
0
0
0
0
0
0
0
578.10022
520.39742
565.32322
584.31738
0
0
0
50.056747
0
0
263.76388
149.31137
154.29393
396.61255
433.17275
0
0
0
0
0
0
0
0
15.192594
0
84.89971
0
0
416.02243
414.49715
145.5045
278.45548
277.49567
548.47982
345.47206
481.73441
395.82709
0
72.007549
116.7256
153.68371
0
211.62828
254.87395
367.677
300.26182
504.2809
457.36217
0
0
0
0
0
0
0
0
0
0
0
0
0
0
0
0
0
0
0
0
0
0
0
0
0
0
0
0
0
0
0
0
0
0
0
0
0
0
0
0
0
0
0
0
0
0
0
0
0
0
0
0
0
0
0
0
0
0
0
0
0
0
0
0
0
0
0
0
0
0
0
0
0
0
0
0
0
0
0
0
0
0
0
0
0
0
0
0
0
0
0
0
0
0
0
0
0
0
0
0
0
0
44.970735
0
221.52274
0
0
0
0
0
0
0
0
0
0
0
0
0
0
0
0
0
0
0
0
0
0
0
0
0
0
0
0
0
0
0
0
0
0
0
0
0
0
0
0
0
0
0
0
0
0
0
0
0
0
0
0
0
0
0
0
569.9729
0
0
0
0
0
0
0
0
0
0
0
0
0
0
0
0
0
0
0
0
0
0
0
0
0
0
0
12.446167
0
0
0
0
101.8748
433.79734
516.52615
315.68355
0
0
0
0
0
0
0
0
0
0
0
0
0
0
0
0
0
0
0
0
357.37652
0
265.07319
200.78375
337.05259
485.91302
558.3463
134.44162
257.80737
0
298.01846
0
402.75316
477.52423
527.9728
576.09583
0
0
0
0
0
0
439.5622
260.21038
366.7782
0
0
0
0
0
)

)


// ************************************************************************* //
