/*--------------------------------*- C++ -*----------------------------------*\
  =========                 |
  \\      /  F ield         | OpenFOAM: The Open Source CFD Toolbox
   \\    /   O peration     | Website:  https://openfoam.org
    \\  /    A nd           | Version:  8
     \\/     M anipulation  |
\*---------------------------------------------------------------------------*/
/*   Windows 32 and 64 bit porting by blueCAPE: http://www.bluecape.com.pt   *\
|  Based on Windows porting (2.0.x v4) by Symscape: http://www.symscape.com   |
\*---------------------------------------------------------------------------*/
FoamFile
{
    version     2.0;
    format      ascii;
    class       labelListList;
    location    "constant/vegetation";
    object      subMap;
}
// * * * * * * * * * * * * * * * * * * * * * * * * * * * * * * * * * * * * * //


20
(
5(0 71 32 35 36)

60
(
0
1
3
4
5
6
7
8
9
10
11
12
13
14
16
17
18
19
20
21
22
23
24
25
26
27
28
29
30
32
33
34
35
36
37
39
40
41
42
44
45
46
48
50
52
53
54
55
56
57
58
60
61
64
65
66
68
70
71
72
)


66
(
0
1
2
3
4
5
6
7
8
9
10
11
12
13
14
15
16
17
18
19
20
21
22
23
24
25
26
27
28
29
30
31
32
33
35
36
37
38
39
40
41
42
43
44
45
46
47
50
51
52
53
54
55
56
58
60
61
62
63
65
66
67
68
70
71
73
)


51
(
0
1
2
3
5
6
7
8
9
10
11
12
13
14
15
18
19
20
21
22
23
24
25
26
27
28
29
31
33
37
38
40
42
43
45
46
47
50
51
52
53
54
55
56
60
61
62
63
69
70
71
)


67
(
0
1
2
3
4
5
6
7
8
9
10
11
12
13
14
15
16
17
18
19
20
21
22
23
24
25
26
27
28
29
30
31
32
33
35
36
37
38
39
40
42
43
44
45
46
47
50
51
52
53
54
55
56
57
58
59
60
61
62
63
65
66
68
69
70
71
72
)


47
(
0
1
2
3
4
6
7
8
9
10
11
14
15
16
17
18
23
24
25
26
27
29
30
31
38
42
43
46
47
49
50
51
53
55
57
62
63
64
65
66
67
69
70
71
72
73
74
)


62
(
0
1
2
3
4
5
6
7
8
9
10
11
12
13
14
15
16
17
18
19
20
21
22
23
24
25
26
27
28
29
30
31
33
37
38
42
43
46
47
48
49
50
51
52
53
55
57
59
61
62
63
64
65
66
67
68
69
70
71
72
73
74
)


70
(
0
1
2
3
4
5
6
7
8
9
10
11
12
13
14
15
16
17
18
19
20
21
22
23
24
25
26
27
28
29
30
31
32
33
34
35
36
37
38
39
40
41
43
44
45
46
47
48
49
50
51
53
54
56
57
58
59
60
63
64
65
66
67
68
69
70
71
72
73
74
)


65
(
0
1
2
3
4
5
6
7
8
9
10
11
12
13
14
15
16
17
18
19
20
21
22
23
24
25
26
27
28
29
30
31
33
34
37
38
39
41
43
44
46
47
48
49
50
51
53
56
57
58
59
60
62
63
64
65
66
67
68
69
70
71
72
73
74
)


75
(
0
1
2
3
4
5
6
7
8
9
10
11
12
13
14
15
16
17
18
19
20
21
22
23
24
25
26
27
28
29
30
31
32
33
34
35
36
37
38
39
40
41
42
43
44
45
46
47
48
49
50
51
52
53
54
55
56
57
58
59
60
61
62
63
64
65
66
67
68
69
70
71
72
73
74
)

9(0 3 4 6 12 13 19 34 57)
3(0 3 12)

22
(
0
3
4
5
6
10
12
13
14
17
18
19
22
26
28
30
34
48
49
57
64
69
)

2(0 3)
1(0)

39
(
0
1
3
4
5
6
10
11
12
13
14
17
18
19
20
21
22
23
26
28
29
30
32
34
35
36
39
41
43
47
48
49
50
51
56
57
63
64
69
)

8(0 3 4 5 6 12 13 19)

31
(
0
3
4
6
12
13
19
31
34
35
38
39
41
43
44
47
48
49
50
51
57
58
59
60
62
63
64
65
66
68
69
)


17
(
31
34
38
43
47
48
49
51
57
58
59
62
63
64
65
66
69
)

9(0 3 67 4 72 73 74 12 50)
)


// ************************************************************************* //
