/*--------------------------------*- C++ -*----------------------------------*\
  =========                 |
  \\      /  F ield         | OpenFOAM: The Open Source CFD Toolbox
   \\    /   O peration     | Website:  https://openfoam.org
    \\  /    A nd           | Version:  8
     \\/     M anipulation  |
\*---------------------------------------------------------------------------*/
/*   Windows 32 and 64 bit porting by blueCAPE: http://www.bluecape.com.pt   *\
|  Based on Windows porting (2.0.x v4) by Symscape: http://www.symscape.com   |
\*---------------------------------------------------------------------------*/
FoamFile
{
    version     2.0;
    format      ascii;
    class       scalarListList;
    location    "constant/vegetation";
    object      sunViewCoeff;
}
// * * * * * * * * * * * * * * * * * * * * * * * * * * * * * * * * * * * * * //


5
(

75
(
0
717.08284
717.08284
717.08284
717.08284
77.488588
440.89225
677.04871
717.08284
390.99125
717.08284
717.08284
717.08284
717.08284
437.71857
717.08284
717.08284
367.5018
69.004331
717.08284
128.03183
394.99893
90.936183
717.08284
54.061445
438.77043
377.78526
599.68417
76.492429
717.08284
49.112715
154.54097
0
16.510535
0
0
125.07007
0
130.81381
35.462732
0
0
8.1840142
280.62866
0
16.003563
197.64813
0
0
0
769.518
520.0923
296.30397
395.08517
256.89605
243.33117
386.17648
243.29409
0
44.885908
30.844331
87.567701
0
0.4187034
10.63097
12.856999
80.430715
0
49.675541
271.54334
471.37274
746.6339
291.29227
0
101.27447
)


75
(
0
585.76158
585.76158
585.76158
585.49245
0
436.45054
585.76158
585.76158
585.76158
585.76158
585.76158
585.76158
585.76158
312.20261
512.30049
585.76158
57.915952
76.990108
585.76158
106.56404
508.97077
374.94981
585.76158
69.042009
507.79897
73.490655
191.33221
240.63466
585.76158
64.353141
50.843241
10.056378
64.596768
0
0
158.6567
26.788027
91.79141
22.789421
20.884857
0
62.88043
119.29685
0
43.142959
237.5808
0
0
0
621.22035
367.72506
398.43074
441.48657
366.20741
343.36658
405.84937
122.1597
0
40.667233
0.96388527
225.82599
19.984781
9.0926433
0
0
50.337624
0
70.555812
60.806419
445.52965
648.96486
107.60335
0
18.154169
)


75
(
0
0
0
536.2201
389.98018
0
0
370.74383
536.2201
465.86399
264.59329
536.2201
536.2201
536.2201
0
86.439609
536.2201
0
0
494.89612
339.79225
536.2201
536.2201
372.5109
370.63675
536.2201
0
0
449.67075
536.2201
0
4.1539347
0
239.77018
0
0
181.8338
34.784375
53.094713
12.740323
18.591792
0
203.15151
3.7930956
30.640238
198.98663
288.06269
0
0
0
561.49133
267.86184
532.04326
537.17193
505.21975
464.137
473.83036
51.713263
0
16.805136
88.621035
357.0387
18.90487
0
0
0
46.220405
0
109.78198
28.565255
461.00112
630.93031
7.9782465
0
0
)


75
(
0
0
0
411.8157
411.8157
0
0
0
79.697496
0
0
99.661646
411.8157
246.82254
0
0
0
0
0
205.86409
104.44341
0
0
0
84.42419
202.22668
0
0
0
80.658285
0
0
0
370.05071
0
0
0
34.887499
0.23003805
98.805236
129.47576
0
294.25929
0
31.00976
332.21657
283.47732
0
0
0
319.56333
15.413069
577.40613
552.51953
563.42394
505.52511
479.66313
0.75460491
13.239979
16.403071
189.61384
425.06447
26.550014
0
0
0
0
0
146.45024
16.17256
399.89047
512.27882
24.060768
0
0
)


75
(
0
0
0
284.42858
284.42858
0
284.42858
0
0
0
0
0
284.42858
284.42858
0
0
0
0
0
284.42858
0
0
0
0
0
0
0
0
0
0
0
0
0
0
0
0
0
0
0
54.212468
0
0
0
0
0
0
19.035136
0
0
0
0
0
213.07341
534.21056
267.4963
0
467.10174
0
0
14.526243
79.500712
0
0
0
0
0
0
0
175.52827
0
305.41977
382.71825
0
0
0
)

)


// ************************************************************************* //
