/*--------------------------------*- C++ -*----------------------------------*\
  =========                 |
  \\      /  F ield         | OpenFOAM: The Open Source CFD Toolbox
   \\    /   O peration     | Website:  https://openfoam.org
    \\  /    A nd           | Version:  8
     \\/     M anipulation  |
\*---------------------------------------------------------------------------*/
/*   Windows 32 and 64 bit porting by blueCAPE: http://www.bluecape.com.pt   *\
|  Based on Windows porting (2.0.x v4) by Symscape: http://www.symscape.com   |
\*---------------------------------------------------------------------------*/
FoamFile
{
    version     2.0;
    format      ascii;
    class       scalarListList;
    location    "constant/air";
    object      divqrsw;
}
// * * * * * * * * * * * * * * * * * * * * * * * * * * * * * * * * * * * * * //


5
(

2249
(
0
0
0
0
0
0
0
0
0
0
0
0
0
0
0
0
0
0
0
0
0
0
0
0
0
0
0
0
0
0
0
0
0
0
0
0
0
0
0
0
0
0
0
0
0
0
0
0
0
0
0
0
0
0
0
0
0
0
0
0
0
0
0
0
0
0
0
0
0
0
0
0
0
0
0
0
0
0
0
0
0
0
0
0
0
0
0
0
0
0
0
0
0
0
0
0
0
0
0
0
0
0
0
0
0
0
0
0
0
0
0
0
0
0
0
0
0
0
0
0
0
0
0
0
0
0
0
0
0
0
0
0
0
0
0
0
0
0
0
0
0
0
0
0
0
0
0
0
0
0
0
0
0
0
0
0
0
0
0
0
0
0
0
0
0
0
0
0
0
0
0
0
0
0
0
0
0
0
0
0
0
0
0
0
0
0
0
0
0
0
0
0
0
0
0
0
0
0
0
0
0
0
0
0
0
0
0
0
0
0
0
0
0
0
0
0
0
0
0
0
0
0
0
0
0
0
0
0
0
0
0
0
0
0
0
0
0
0
0
0
0
0
0
0
0
0
0
0
0
0
0
0
0
0
0
0
0
0
0
0
0
0
0
0
0
0
0
0
0
0
0
0
0
0
0
0
0
0
0
0
0
0
0
0
-91.31588
0
0
0
0
0
0
0
0
0
0
0
0
-218.62156
0
0
0
0
0
0
0
0
0
0
0
0
0
0
0
0
0
0
0
0
0
0
0
0
0
0
0
0
0
0
0
0
0
0
0
0
0
0
0
0
0
0
0
0
0
0
0
0
0
0
0
0
0
0
0
0
0
0
0
0
0
0
0
0
0
0
0
0
0
0
0
0
0
0
0
0
0
0
0
0
0
0
0
0
0
0
0
0
0
0
0
0
0
0
0
0
0
0
0
0
0
0
0
0
0
0
0
0
0
0
0
0
0
0
0
0
0
0
0
0
0
0
0
0
0
0
0
0
0
0
0
-180.79825
-106.12877
-90.226191
0
0
-132.42875
0
0
0
-55.590292
0
0
0
-163.71134
0
-79.793233
-66.050389
-82.6594
-103.10537
0
-72.054499
-67.11236
-159.26422
0
-102.41794
-106.05167
0
-93.121306
0
0
0
-96.574004
0
0
-94.635716
0
-187.8432
0
-123.75912
0
-135.47585
-61.455415
0
0
0
-79.905773
0
0
0
0
0
0
0
0
0
0
0
0
0
0
0
0
0
0
0
0
0
0
0
0
0
0
0
0
0
0
0
0
0
0
0
0
0
0
0
0
0
0
0
0
0
0
0
0
0
0
0
0
0
0
0
0
0
0
0
0
0
0
0
0
0
0
0
0
0
0
0
0
0
0
0
0
0
0
0
0
0
0
0
0
0
0
0
0
0
0
0
0
0
0
0
0
0
0
0
0
0
0
0
0
0
0
0
0
0
0
0
0
0
0
0
0
0
0
0
0
0
0
0
0
0
0
0
0
0
0
0
0
0
0
0
0
0
0
0
0
0
0
0
0
0
0
0
0
0
0
0
0
0
0
0
0
0
0
0
-206.36686
-183.03286
0
0
0
-149.91583
-200.40603
0
0
-185.80161
-71.861614
0
0
-118.87098
-194.84597
-60.700181
-173.10509
0
0
-120.23512
-194.76159
-157.21913
0
0
0
-224.52347
0
0
-144.55258
0
-188.42395
-150.68689
-200.16664
0
0
-163.18619
0
0
0
0
0
-212.8821
-127.16002
0
0
0
0
0
0
0
0
0
0
0
0
0
0
0
0
0
0
0
0
0
0
0
0
0
0
0
0
0
0
0
0
0
0
0
0
0
0
0
0
0
0
0
0
0
0
0
0
0
0
0
0
0
0
0
0
0
0
0
0
0
0
0
0
0
0
0
0
0
0
0
0
0
0
0
0
0
0
0
0
0
0
0
0
0
0
0
0
0
0
0
0
0
0
0
0
0
0
-97.714563
0
0
-80.404488
0
0
0
-80.6244
0
0
-96.093776
-76.010842
0
0
0
0
0
-87.928166
-98.45991
0
0
0
0
0
-86.126646
0
0
0
0
0
0
0
0
0
0
0
0
0
0
0
0
0
0
0
0
0
0
0
0
0
0
0
0
0
0
0
0
0
0
0
-54.745131
0
0
0
-66.98584
0
0
0
0
-95.568855
0
0
-100.1805
-94.592455
0
0
0
0
0
-95.227794
-88.630835
0
0
0
0
-82.448548
0
0
0
0
0
0
0
0
0
0
0
0
0
0
0
0
0
0
0
0
0
0
0
0
0
0
0
0
0
0
0
0
0
0
0
0
0
0
0
0
0
0
0
0
0
0
0
0
0
0
0
0
0
0
0
0
0
0
0
0
0
0
0
0
0
0
0
0
0
0
0
0
0
0
0
0
0
0
0
0
0
0
0
0
0
0
0
0
0
0
0
0
0
0
0
0
0
0
0
0
0
0
0
0
0
0
0
0
0
0
0
0
0
0
0
-81.960975
-130.41333
-67.040977
-140.83732
-87.614313
-155.91957
-89.797948
-145.99573
-79.115739
-161.82663
0
0
-95.782891
0
0
-87.254859
0
0
0
-83.662613
0
-67.189325
-128.1774
0
0
0
0
-128.30595
0
-100.14419
-87.436122
0
0
0
-145.22309
0
-119.19363
-104.2374
-117.25386
-193.3916
-194.47512
-180.09513
-167.64891
-154.71643
-142.40604
0
0
0
-101.63144
0
0
0
0
0
0
0
0
0
0
0
0
0
-108.70346
0
0
0
-146.60614
-181.30492
-150.64414
-136.88433
-153.99904
-140.22735
-139.04257
0
-153.3235
-149.86515
-142.59812
-94.551423
-131.13915
-117.77054
-135.13356
-89.796651
-142.23943
-97.226986
-138.13734
-98.245057
-133.36935
-102.23904
0
0
-83.698533
0
-102.4481
-83.492798
-113.8598
0
-112.14201
0
-106.65047
0
-114.61462
-127.37649
-134.91286
-114.53922
-133.64749
-115.89285
-126.25154
-134.32874
0
0
0
0
0
0
0
0
0
0
-27.008565
-52.429586
-36.439985
-40.166112
-30.921939
-53.920899
-41.98688
-46.488871
-41.783081
-40.990719
-34.340398
0
0
0
0
0
0
0
0
0
-26.351267
0
-29.463813
0
0
0
0
-37.112999
0
-29.749106
-26.806592
0
-136.16271
-146.5915
-111.44724
-92.594213
-130.57546
-111.43499
-114.33265
0
0
0
-61.303586
0
-44.680572
0
-59.376324
-113.37593
-83.980667
-72.334128
-69.751914
-89.985243
-54.446416
-64.882242
-66.155425
-76.609849
-50.07786
-78.11842
-51.76481
-61.462918
-74.789239
0
-83.954465
0
-66.297601
0
-91.549018
-79.354325
-106.449
-88.27812
-93.626339
-90.373951
-74.645095
-98.218517
-57.520567
0
-35.542136
0
-42.308531
-49.34531
0
-72.862441
-80.869635
-81.795409
-54.842971
-64.84102
-92.081639
-62.471252
-64.805804
0
-79.074262
0
-62.79662
0
-79.220267
-101.05882
-144.15364
-143.47804
-139.35061
-123.01247
-123.2837
-122.25075
-61.031537
0
0
0
0
-43.318671
0
-84.743206
-90.483543
-125.09271
-76.384996
-101.24491
-106.45998
-68.52033
-50.978662
-34.754174
0
0
-47.671532
-37.434624
0
-138.93514
-95.719048
-150.45754
-88.912626
-151.90949
-142.34777
-87.951333
0
0
0
0
0
0
0
0
0
0
0
0
0
0
-99.261416
-95.467599
0
0
0
-116.64261
-78.424853
0
-95.477192
0
0
0
0
-92.666099
0
-78.706706
0
0
-116.38888
-73.873068
0
-138.00024
-101.90125
-142.54478
-102.05347
-134.16714
-112.29351
-142.64235
-102.1034
0
0
-84.037793
0
-102.36919
-85.64454
-143.3854
-167.87794
-168.04249
-168.52383
-150.86869
-149.11493
-159.35594
-104.85145
0
0
0
0
0
-103.36909
-136.40068
-111.24096
-146.43811
-116.31758
-132.68938
-127.9019
-131.47919
-114.71013
-114.51567
0
0
0
-114.84914
-116.42069
-136.1789
-119.22448
-136.38983
-151.09
-128.33195
-132.62242
-148.23724
-41.597612
-68.595608
-46.773726
-51.655125
-37.621197
-53.050856
-57.21721
0
0
0
0
0
0
0
0
0
0
0
0
0
0
0
0
0
0
0
0
0
-37.670834
-73.588721
0
0
0
-52.582691
-58.994762
0
-27.4278
0
0
0
-30.177546
0
0
-41.215776
0
0
-28.354526
-45.125475
0
0
0
0
0
0
0
0
0
0
0
0
0
0
0
0
0
0
0
0
0
0
0
0
0
0
-134.88093
-109.70669
-116.28164
0
0
0
-83.545014
0
-71.358738
0
0
0
0
-152.94688
-129.62408
0
-116.36366
-135.59319
-187.90362
-172.52751
-201.79879
-176.71738
-158.3373
-159.67739
-125.70123
-148.62391
-135.16995
-165.23691
-92.320499
-140.66002
-162.50208
-50.923104
0
0
0
0
0
0
-79.207304
0
-76.956236
0
-76.458926
0
-83.128431
-123.49199
-121.78144
0
-146.82757
-104.72374
0
-159.21024
-183.24376
-153.19501
-154.10562
-169.57532
-154.56543
-173.18158
-187.31942
-189.96413
-190.98218
-190.75822
-186.43662
-168.3995
-190.85331
-197.5034
-86.466692
0
0
-105.24978
-89.607138
0
-95.792924
0
0
0
-82.082319
0
0
0
-156.02602
-183.84515
-171.74087
-153.26169
-151.67274
-135.66621
-164.27508
-94.668607
0
0
-93.16829
0
-98.841928
-92.059008
0
-154.44996
-146.71637
-155.32431
-158.04261
-146.37894
-166.64524
-94.000509
0
0
-94.025052
0
-87.026185
-96.013243
-141.51379
-122.95909
-114.26335
-146.33934
-118.66627
-149.83508
-138.86477
-167.59877
-190.3445
-183.69189
-174.39851
-180.83401
-176.76166
-166.83878
-92.793257
0
0
-89.08645
0
-89.306636
-91.686273
-165.3871
-167.22596
-157.67289
-182.99206
-168.22322
-145.84933
-180.60592
-90.047329
0
0
0
0
0
-82.777788
-94.187068
0
0
-97.81862
0
-97.436008
-91.935664
-178.12656
-183.13852
-171.43224
-196.56005
-166.79277
-189.44663
-182.32089
-186.1603
-187.77662
-136.92016
-193.97815
-168.98591
-204.67098
-177.00387
0
0
0
0
0
0
0
0
0
0
-153.33543
-114.6271
0
-129.37553
-126.95098
-197.62976
-181.77001
-214.40657
-147.8456
-161.57833
-174.58617
0
0
0
0
0
0
0
0
0
-105.12091
0
0
0
-91.455898
-93.005097
0
-193.18254
0
0
-133.83865
-138.38152
-87.988927
0
-77.528261
0
-80.958204
0
-83.638657
-208.84903
-175.349
-181.43858
-194.34378
-192.58363
-177.28607
-198.36636
-201.28817
-155.88825
-167.20268
-167.53667
-168.58784
-188.08594
-184.90762
-192.11902
-184.51693
-187.79454
-200.32562
-192.98762
-197.71115
-177.82869
-90.748464
0
0
0
0
0
-87.430584
-95.709604
0
-109.04899
0
0
-97.139607
-100.76967
-185.83774
-184.18118
-196.34623
-120.45671
-152.96463
-204.6279
-162.83399
0
0
0
0
0
0
0
0
0
0
0
0
0
0
0
0
0
0
0
0
0
0
0
0
-91.196358
0
0
-78.272575
0
0
0
-158.58771
0
-122.6054
-135.40001
-149.52601
-178.52765
-206.31769
-200.97723
-171.629
-165.01811
-181.53803
-111.77913
0
0
-180.42142
0
-144.10171
-144.83301
0
0
0
0
0
0
0
0
0
0
0
0
0
0
0
0
0
0
0
0
0
0
0
0
0
0
0
0
0
0
0
0
0
0
0
0
0
0
0
0
0
0
0
0
0
0
0
0
0
0
0
0
0
0
0
0
0
0
0
0
0
0
0
0
0
0
0
0
0
0
0
0
0
0
0
0
0
0
0
0
0
0
0
0
0
0
0
0
0
0
0
0
0
0
0
0
0
0
0
0
0
0
0
0
0
0
0
0
0
0
0
0
0
0
0
0
0
0
0
0
0
0
0
0
0
0
0
0
0
0
0
0
0
-85.334801
-93.019048
-94.915565
-121.52694
-76.17868
-106.14294
-106.42944
-153.34648
-114.71501
-139.03275
-145.47712
-128.99517
-139.0886
-164.37418
0
0
0
0
0
0
0
0
0
0
0
0
0
0
0
0
0
0
0
0
0
0
0
0
0
0
0
0
0
0
0
0
0
0
0
0
0
0
0
0
0
0
0
0
0
0
0
0
0
0
0
0
0
0
0
0
0
0
0
0
0
0
0
0
0
0
0
0
0
0
0
0
0
0
0
0
0
0
0
0
0
0
0
0
0
0
0
0
0
0
0
0
0
0
0
0
0
0
0
0
0
0
0
0
0
0
0
0
0
0
0
0
0
0
0
0
0
0
0
0
0
0
0
0
0
0
0
0
0
0
0
0
0
0
0
0
0
0
0
0
0
0
0
0
0
0
0
0
0
0
0
0
0
0
0
0
0
0
0
0
0
0
0
0
0
0
0
0
0
0
0
0
0
0
0
0
0
0
0
0
0
0
0
0
0
0
0
0
0
0
0
0
0
0
0
0
0
0
0
0
0
0
0
0
0
0
0
0
0
0
0
0
0
0
0
0
0
0
0
0
0
0
0
0
0
0
0
0
0
0
0
0
0
0
0
0
0
0
0
0
0
0
0
0
0
0
0
0
0
0
0
0
0
0
0
0
0
0
0
0
0
0
0
0
0
0
0
0
0
0
0
0
0
0
0
0
0
0
0
0
0
0
0
0
0
0
0
0
0
0
0
0
0
0
0
0
0
0
0
0
0
0
0
0
0
0
0
0
0
0
0
0
0
0
0
0
0
0
0
0
0
0
0
0
0
0
0
0
0
0
0
0
0
0
0
0
0
0
0
0
0
0
0
0
0
0
0
0
0
0
0
0
0
0
0
0
0
0
0
0
0
0
0
0
0
0
0
0
0
0
0
0
0
0
0
0
0
0
0
0
0
0
0
0
0
0
0
0
0
0
0
0
0
0
0
0
0
0
0
0
0
0
0
0
0
0
0
0
0
0
0
0
0
0
0
0
)


2249
(
0
0
0
0
0
0
0
0
0
0
0
0
0
0
0
0
0
0
0
0
0
0
0
0
0
0
0
0
0
0
0
0
0
0
0
0
0
0
0
0
0
0
0
0
0
0
0
0
0
0
0
0
0
0
0
0
0
0
0
0
0
0
0
0
0
0
0
0
0
0
0
0
0
0
0
0
0
0
0
0
0
0
0
0
0
0
0
0
0
0
0
0
0
0
0
0
0
0
0
0
0
0
0
0
0
0
0
0
0
0
0
0
0
0
0
0
0
0
0
0
0
0
0
0
0
0
0
0
0
0
0
0
0
0
0
0
0
0
0
0
0
0
0
0
0
0
0
0
0
0
0
0
0
0
0
0
0
0
0
0
0
0
0
0
0
0
0
0
0
0
0
0
0
0
0
0
0
0
0
0
0
0
0
0
0
0
0
0
0
0
0
0
0
0
0
0
0
0
0
0
0
0
0
0
0
0
0
0
0
0
0
0
0
0
0
0
0
0
0
0
0
0
0
0
0
0
0
0
0
0
0
0
0
0
0
0
0
0
0
0
0
0
0
0
0
0
0
0
0
0
0
0
0
0
0
0
0
0
0
0
0
0
0
0
0
0
0
0
0
0
0
0
0
0
0
0
0
0
0
0
0
0
0
0
-74.247378
0
0
0
0
0
0
0
0
0
0
0
0
-182.04377
0
0
0
0
0
0
0
0
0
0
0
0
0
0
0
0
0
0
0
0
0
0
0
0
0
0
0
0
0
0
0
0
0
0
0
0
0
0
0
0
0
0
0
0
0
0
0
0
0
0
0
0
0
0
0
0
0
0
0
0
0
0
0
0
0
0
0
0
0
0
0
0
0
0
0
0
0
0
0
0
0
0
0
0
0
0
0
0
0
0
0
0
0
0
0
0
0
0
0
0
0
0
0
0
0
0
0
0
0
0
0
0
0
0
0
0
0
0
0
0
0
0
0
0
0
0
0
0
0
0
0
-105.48817
-50.392226
-78.744323
0
0
-113.42871
0
0
0
-55.417956
0
0
0
-88.068157
0
-36.802646
-63.98879
-82.852145
-90.359966
0
-73.508085
-59.264115
-161.61711
0
-104.2082
-103.82496
0
-81.633444
0
0
0
-94.729723
0
0
-89.120956
0
-166.27876
0
-113.19879
0
-127.9974
-64.021828
0
0
0
-81.104312
0
0
0
0
0
0
0
0
0
0
0
0
0
0
0
0
0
0
0
0
0
0
0
0
0
0
0
0
0
0
0
0
0
0
0
0
0
0
0
0
0
0
0
0
0
0
0
0
0
0
0
0
0
0
0
0
0
0
0
0
0
0
0
0
0
0
0
0
0
0
0
0
0
0
0
0
0
0
0
0
0
0
0
0
0
0
0
0
0
0
0
0
0
0
0
0
0
0
0
0
0
0
0
0
0
0
0
0
0
0
0
0
0
0
0
0
0
0
0
0
0
0
0
0
0
0
0
0
0
0
0
0
0
0
0
0
0
0
0
0
0
0
0
0
0
0
0
0
0
0
0
0
0
0
0
0
0
0
0
-176.0224
-114.24738
0
0
0
-125.88045
-165.81204
0
0
-106.18904
-68.679936
0
0
-104.05383
-165.02169
-56.665909
-159.37997
0
0
-118.18229
-172.24413
-127.28811
0
0
0
-186.92132
0
0
-112.65675
0
-167.2197
-140.59032
-173.96994
0
0
-142.48519
0
0
0
0
0
-178.94584
-102.37806
0
0
0
0
0
0
0
0
0
0
0
0
0
0
0
0
0
0
0
0
0
0
0
0
0
0
0
0
0
0
0
0
0
0
0
0
0
0
0
0
0
0
0
0
0
0
0
0
0
0
0
0
0
0
0
0
0
0
0
0
0
0
0
0
0
0
0
0
0
0
0
0
0
0
0
0
0
0
0
0
0
0
0
0
0
0
0
0
0
0
0
0
0
0
0
0
0
0
-89.735987
0
0
-66.308431
0
0
0
-52.669522
0
0
-62.203898
-84.91216
0
0
0
0
0
-90.542856
-75.662006
0
0
0
0
0
-71.734754
0
0
0
0
0
0
0
0
0
0
0
0
0
0
0
0
0
0
0
0
0
0
0
0
0
0
0
0
0
0
0
0
0
0
0
-49.182546
0
0
0
-50.697184
0
0
0
0
-67.965848
0
0
-68.359676
-82.675186
0
0
0
0
0
-89.739582
-80.727361
0
0
0
0
-76.943236
0
0
0
0
0
0
0
0
0
0
0
0
0
0
0
0
0
0
0
0
0
0
0
0
0
0
0
0
0
0
0
0
0
0
0
0
0
0
0
0
0
0
0
0
0
0
0
0
0
0
0
0
0
0
0
0
0
0
0
0
0
0
0
0
0
0
0
0
0
0
0
0
0
0
0
0
0
0
0
0
0
0
0
0
0
0
0
0
0
0
0
0
0
0
0
0
0
0
0
0
0
0
0
0
0
0
0
0
0
0
0
0
0
0
0
-53.793961
-96.283638
-45.198488
-104.6133
-66.214586
-119.23221
-69.924853
-118.67281
-58.885162
-119.60255
0
0
-90.30466
0
0
-85.64105
0
0
0
-64.663779
0
-50.135543
-109.05775
0
0
0
0
-130.24002
0
-110.02695
-90.096651
0
0
0
-137.49733
0
-113.61797
-103.27804
-109.54133
-151.09198
-187.58873
-161.60253
-148.74558
-123.12773
-140.85091
0
0
0
-100.57872
0
0
0
0
0
0
0
0
0
0
0
0
0
-91.491204
0
0
0
-96.84725
-87.04112
-93.036272
-97.899438
-96.590714
-80.102169
-97.97857
0
-67.367156
-84.677738
-93.850309
-59.367099
-95.591544
-68.690986
-102.01274
-69.340831
-111.11504
-87.904228
-106.38267
-78.53106
-107.37733
-87.413378
0
0
-65.123607
0
-82.77694
-66.471516
-100.48724
0
-98.780015
0
-92.412431
0
-98.674103
-100.6263
-102.38578
-99.528509
-114.22471
-89.049491
-105.67507
-104.48464
0
0
0
0
0
0
0
0
0
0
-20.637
-36.631662
-26.59842
-28.084657
-29.276005
-46.471097
-43.48361
-47.205945
-37.16033
-35.98806
-37.794746
0
0
0
0
0
0
0
0
0
-28.803684
0
-24.692738
0
0
0
0
-38.841535
0
-28.31654
-31.689536
0
-76.396747
-68.549992
-56.885088
-56.473751
-75.94388
-63.388561
-68.916927
0
0
0
-39.784712
0
-29.044002
0
-28.980481
-51.544194
-41.192681
-46.087317
-45.800851
-54.761191
-36.62241
-53.067551
-55.121718
-71.719141
-50.866455
-63.103442
-43.86654
-60.369842
-58.675373
0
-78.244424
0
-64.759806
0
-69.225752
-63.158906
-80.976762
-79.063311
-84.116839
-70.851747
-70.087301
-75.172464
-44.969253
0
-37.849288
0
-34.381053
-49.944056
0
-81.595948
-87.320047
-81.786533
-58.669632
-68.767814
-96.319095
-71.318218
-70.712643
0
-79.197298
0
-66.370388
0
-81.437398
-117.78761
-156.11302
-157.61404
-144.31346
-134.96586
-132.66689
-136.55462
-76.142782
0
0
0
0
-63.437608
0
-101.6494
-105.73544
-125.2211
-82.194864
-104.06504
-119.86124
-88.340443
-63.215645
-41.759547
0
0
-55.019409
-50.836999
0
-90.806343
-89.054022
-120.76691
-75.324734
-120.26788
-105.40739
-75.540201
0
0
0
0
0
0
0
0
0
0
0
0
0
0
-70.579264
-100.34011
0
0
0
-97.554051
-77.101878
0
-94.405725
0
0
0
0
-82.859436
0
-63.990809
0
0
-95.907321
-59.730844
0
-117.35847
-101.12916
-114.82871
-99.053736
-111.80871
-114.82282
-114.35847
-77.66198
0
0
-67.648571
0
-79.02291
-71.120978
-138.3823
-152.12611
-170.06897
-160.20229
-145.06444
-149.93649
-152.01491
-82.210556
0
0
0
0
0
-83.872942
-122.24487
-115.37549
-136.43279
-95.737574
-119.61375
-133.11736
-112.60706
-91.181625
-102.82493
0
0
0
-95.588504
-96.063667
-126.81682
-114.43255
-127.82456
-145.00205
-114.91421
-130.52812
-142.82019
-49.283827
-75.500053
-50.284662
-55.245327
-43.584561
-59.169467
-62.911241
0
0
0
0
0
0
0
0
0
0
0
0
0
0
0
0
0
0
0
0
0
-52.030481
-90.133623
0
0
0
-71.968169
-67.408788
0
-32.54457
0
0
0
-37.916563
0
0
-44.917958
0
0
-33.816559
-51.075056
0
0
0
0
0
0
0
0
0
0
0
0
0
0
0
0
0
0
0
0
0
0
0
0
0
0
-130.67838
-105.30086
-112.22134
0
0
0
-86.75911
0
-65.116379
0
0
0
0
-140.23659
-112.95462
0
-113.31467
-108.41729
-149.73921
-154.36574
-177.78786
-138.23167
-133.04681
-142.49149
-97.410649
-122.18857
-113.21157
-110.36873
-92.560269
-104.53259
-121.5799
-50.392195
0
0
0
0
0
0
-59.487597
0
-62.432201
0
-57.168564
0
-68.241132
-107.43947
-117.16066
0
-133.76391
-110.86751
0
-128.8278
-136.12892
-114.26651
-131.72401
-139.63947
-118.01334
-125.79788
-155.41911
-144.85664
-148.98898
-154.24732
-161.33022
-137.31402
-138.72098
-168.30182
-65.665861
0
0
-91.887697
-70.650714
0
-79.86764
0
0
0
-62.991604
0
0
0
-97.551853
-124.34519
-115.94296
-108.89155
-94.522463
-89.010551
-114.13414
-68.997999
0
0
-82.279172
0
-73.373642
-77.44019
0
-126.208
-130.7337
-125.94412
-135.87591
-128.85465
-129.46608
-64.824492
0
0
-82.927648
0
-69.157681
-78.133436
-106.16961
-93.492984
-100.10218
-123.06435
-90.615159
-108.70956
-117.67892
-128.24054
-148.14371
-156.49035
-144.63919
-141.24553
-131.23595
-140.57377
-85.395924
0
0
-85.701889
0
-86.296341
-86.01571
-167.24905
-151.41014
-155.93292
-166.10122
-154.9187
-150.99848
-176.25501
-76.78589
0
0
0
0
0
-58.664906
-83.023181
0
0
-84.828653
0
-86.773129
-75.858134
-168.74924
-160.6969
-159.89065
-173.12865
-152.79372
-176.12269
-155.47477
-175.66172
-146.09111
-102.67272
-160.55921
-137.84659
-175.94763
-137.88591
0
0
0
0
0
0
0
0
0
0
-138.18284
-108.27221
0
-108.66012
-107.22942
-175.733
-160.29853
-186.60581
-134.73588
-138.97344
-148.00514
0
0
0
0
0
0
0
0
0
-95.775874
0
0
0
-79.195546
-73.214684
0
-152.57631
0
0
-105.02568
-111.07127
-82.164212
0
-68.152857
0
-73.634549
0
-77.303414
-181.77064
-169.58572
-170.08668
-162.29492
-147.73885
-175.73434
-189.43076
-188.09555
-147.9041
-157.48509
-155.20925
-164.44591
-175.18084
-172.36896
-167.62937
-171.37979
-161.67651
-175.78663
-173.57364
-176.63744
-153.9193
-77.350452
0
0
0
0
0
-70.52214
-86.048654
0
-93.901004
0
0
-86.466031
-89.030458
-152.0069
-146.65779
-168.51059
-98.967465
-121.05135
-174.37886
-133.47276
0
0
0
0
0
0
0
0
0
0
0
0
0
0
0
0
0
0
0
0
0
0
0
0
-76.207348
0
0
-60.808057
0
0
0
-139.49241
0
-108.57466
-115.81944
-124.37439
-149.9973
-180.82412
-177.18435
-140.51997
-140.95679
-157.31953
-85.137963
0
0
-150.29565
0
-113.25773
-115.16175
0
0
0
0
0
0
0
0
0
0
0
0
0
0
0
0
0
0
0
0
0
0
0
0
0
0
0
0
0
0
0
0
0
0
0
0
0
0
0
0
0
0
0
0
0
0
0
0
0
0
0
0
0
0
0
0
0
0
0
0
0
0
0
0
0
0
0
0
0
0
0
0
0
0
0
0
0
0
0
0
0
0
0
0
0
0
0
0
0
0
0
0
0
0
0
0
0
0
0
0
0
0
0
0
0
0
0
0
0
0
0
0
0
0
0
0
0
0
0
0
0
0
0
0
0
0
0
0
0
0
0
0
0
-95.8562
-92.441414
-98.012258
-120.18295
-80.609953
-107.30789
-115.76521
-151.60893
-114.30753
-138.42916
-138.40773
-135.31863
-131.75721
-158.02686
0
0
0
0
0
0
0
0
0
0
0
0
0
0
0
0
0
0
0
0
0
0
0
0
0
0
0
0
0
0
0
0
0
0
0
0
0
0
0
0
0
0
0
0
0
0
0
0
0
0
0
0
0
0
0
0
0
0
0
0
0
0
0
0
0
0
0
0
0
0
0
0
0
0
0
0
0
0
0
0
0
0
0
0
0
0
0
0
0
0
0
0
0
0
0
0
0
0
0
0
0
0
0
0
0
0
0
0
0
0
0
0
0
0
0
0
0
0
0
0
0
0
0
0
0
0
0
0
0
0
0
0
0
0
0
0
0
0
0
0
0
0
0
0
0
0
0
0
0
0
0
0
0
0
0
0
0
0
0
0
0
0
0
0
0
0
0
0
0
0
0
0
0
0
0
0
0
0
0
0
0
0
0
0
0
0
0
0
0
0
0
0
0
0
0
0
0
0
0
0
0
0
0
0
0
0
0
0
0
0
0
0
0
0
0
0
0
0
0
0
0
0
0
0
0
0
0
0
0
0
0
0
0
0
0
0
0
0
0
0
0
0
0
0
0
0
0
0
0
0
0
0
0
0
0
0
0
0
0
0
0
0
0
0
0
0
0
0
0
0
0
0
0
0
0
0
0
0
0
0
0
0
0
0
0
0
0
0
0
0
0
0
0
0
0
0
0
0
0
0
0
0
0
0
0
0
0
0
0
0
0
0
0
0
0
0
0
0
0
0
0
0
0
0
0
0
0
0
0
0
0
0
0
0
0
0
0
0
0
0
0
0
0
0
0
0
0
0
0
0
0
0
0
0
0
0
0
0
0
0
0
0
0
0
0
0
0
0
0
0
0
0
0
0
0
0
0
0
0
0
0
0
0
0
0
0
0
0
0
0
0
0
0
0
0
0
0
0
0
0
0
0
0
0
0
0
0
0
0
0
0
0
0
0
0
0
)


2249
(
0
0
0
0
0
0
0
0
0
0
0
0
0
0
0
0
0
0
0
0
0
0
0
0
0
0
0
0
0
0
0
0
0
0
0
0
0
0
0
0
0
0
0
0
0
0
0
0
0
0
0
0
0
0
0
0
0
0
0
0
0
0
0
0
0
0
0
0
0
0
0
0
0
0
0
0
0
0
0
0
0
0
0
0
0
0
0
0
0
0
0
0
0
0
0
0
0
0
0
0
0
0
0
0
0
0
0
0
0
0
0
0
0
0
0
0
0
0
0
0
0
0
0
0
0
0
0
0
0
0
0
0
0
0
0
0
0
0
0
0
0
0
0
0
0
0
0
0
0
0
0
0
0
0
0
0
0
0
0
0
0
0
0
0
0
0
0
0
0
0
0
0
0
0
0
0
0
0
0
0
0
0
0
0
0
0
0
0
0
0
0
0
0
0
0
0
0
0
0
0
0
0
0
0
0
0
0
0
0
0
0
0
0
0
0
0
0
0
0
0
0
0
0
0
0
0
0
0
0
0
0
0
0
0
0
0
0
0
0
0
0
0
0
0
0
0
0
0
0
0
0
0
0
0
0
0
0
0
0
0
0
0
0
0
0
0
0
0
0
0
0
0
0
0
0
0
0
0
0
0
0
0
0
0
-85.278841
0
0
0
0
0
0
0
0
0
0
0
0
-186.25866
0
0
0
0
0
0
0
0
0
0
0
0
0
0
0
0
0
0
0
0
0
0
0
0
0
0
0
0
0
0
0
0
0
0
0
0
0
0
0
0
0
0
0
0
0
0
0
0
0
0
0
0
0
0
0
0
0
0
0
0
0
0
0
0
0
0
0
0
0
0
0
0
0
0
0
0
0
0
0
0
0
0
0
0
0
0
0
0
0
0
0
0
0
0
0
0
0
0
0
0
0
0
0
0
0
0
0
0
0
0
0
0
0
0
0
0
0
0
0
0
0
0
0
0
0
0
0
0
0
0
0
-75.021428
-55.450905
-92.607756
0
0
-116.71331
0
0
0
-66.098915
0
0
0
-64.293041
0
-36.705737
-73.852552
-73.588123
-98.49993
0
-88.514054
-72.26031
-164.06058
0
-160.45206
-113.75242
0
-95.746932
0
0
0
-118.43257
0
0
-103.58048
0
-168.06101
0
-174.33767
0
-137.32936
-81.265901
0
0
0
-111.60579
0
0
0
0
0
0
0
0
0
0
0
0
0
0
0
0
0
0
0
0
0
0
0
0
0
0
0
0
0
0
0
0
0
0
0
0
0
0
0
0
0
0
0
0
0
0
0
0
0
0
0
0
0
0
0
0
0
0
0
0
0
0
0
0
0
0
0
0
0
0
0
0
0
0
0
0
0
0
0
0
0
0
0
0
0
0
0
0
0
0
0
0
0
0
0
0
0
0
0
0
0
0
0
0
0
0
0
0
0
0
0
0
0
0
0
0
0
0
0
0
0
0
0
0
0
0
0
0
0
0
0
0
0
0
0
0
0
0
0
0
0
0
0
0
0
0
0
0
0
0
0
0
0
0
0
0
0
0
0
-179.65759
-78.346701
0
0
0
-130.19015
-172.42556
0
0
-76.495933
-66.410223
0
0
-108.26093
-160.0954
-67.901986
-178.29211
0
0
-127.71847
-170.92747
-150.07337
0
0
0
-197.8312
0
0
-110.41543
0
-178.87303
-153.49332
-184.03995
0
0
-131.15629
0
0
0
0
0
-189.04597
-127.29515
0
0
0
0
0
0
0
0
0
0
0
0
0
0
0
0
0
0
0
0
0
0
0
0
0
0
0
0
0
0
0
0
0
0
0
0
0
0
0
0
0
0
0
0
0
0
0
0
0
0
0
0
0
0
0
0
0
0
0
0
0
0
0
0
0
0
0
0
0
0
0
0
0
0
0
0
0
0
0
0
0
0
0
0
0
0
0
0
0
0
0
0
0
0
0
0
0
0
-75.918162
0
0
-83.0257
0
0
0
-76.896666
0
0
-85.796061
-85.341138
0
0
0
0
0
-103.65031
-106.85794
0
0
0
0
0
-111.70487
0
0
0
0
0
0
0
0
0
0
0
0
0
0
0
0
0
0
0
0
0
0
0
0
0
0
0
0
0
0
0
0
0
0
0
-88.378416
0
0
0
-88.116503
0
0
0
0
-81.137307
0
0
-84.800811
-114.46707
0
0
0
0
0
-117.43536
-86.148823
0
0
0
0
-100.33002
0
0
0
0
0
0
0
0
0
0
0
0
0
0
0
0
0
0
0
0
0
0
0
0
0
0
0
0
0
0
0
0
0
0
0
0
0
0
0
0
0
0
0
0
0
0
0
0
0
0
0
0
0
0
0
0
0
0
0
0
0
0
0
0
0
0
0
0
0
0
0
0
0
0
0
0
0
0
0
0
0
0
0
0
0
0
0
0
0
0
0
0
0
0
0
0
0
0
0
0
0
0
0
0
0
0
0
0
0
0
0
0
0
0
0
-62.641528
-86.423105
-52.087855
-83.314181
-75.310962
-115.96547
-76.772946
-104.44835
-65.214459
-97.90509
0
0
-52.96747
0
0
-45.075851
0
0
0
-65.426749
0
-51.854259
-76.443898
0
0
0
0
-114.70289
0
-102.89127
-79.333298
0
0
0
-146.74992
0
-129.01975
-119.02002
-108.43383
-154.73026
-198.05599
-162.47994
-145.6955
-123.33188
-162.09043
0
0
0
-75.350767
0
0
0
0
0
0
0
0
0
0
0
0
0
-61.952832
0
0
0
-109.12037
-69.864294
-105.64926
-120.8509
-87.033743
-82.200283
-115.31826
0
-63.390844
-97.281716
-112.5917
-69.604353
-101.91944
-76.005364
-125.3769
-82.187368
-126.3104
-99.474485
-115.5217
-87.980353
-128.42715
-83.485061
0
0
-100.09306
0
-90.50929
-93.761977
-72.008911
0
-66.064391
0
-57.148736
0
-78.441535
-124.48624
-101.0063
-107.51559
-131.1247
-93.958797
-129.30785
-124.06819
0
0
0
0
0
0
0
0
0
0
-26.376315
-42.110726
-33.859294
-33.5675
-37.970221
-54.078875
-59.408014
-56.636547
-44.897429
-45.096766
-51.377137
0
0
0
0
0
0
0
0
0
-36.387032
0
-34.487986
0
0
0
0
-48.903781
0
-34.603115
-41.593711
0
-59.32101
-53.992971
-48.417152
-58.23104
-73.893238
-63.54095
-70.76036
0
0
0
-57.141983
0
-40.873161
0
-30.351009
-44.577646
-37.442538
-47.439996
-49.120483
-56.183825
-40.210621
-58.007131
-61.191225
-80.092554
-65.134337
-67.813216
-49.986317
-70.202957
-86.71008
0
-109.99876
0
-95.594733
0
-103.40332
-69.114456
-84.618147
-89.422182
-94.296864
-75.507904
-81.483563
-81.876671
-66.69968
0
-51.728566
0
-48.923026
-72.751332
0
-109.22541
-114.36254
-99.468534
-82.652155
-88.787537
-121.5319
-103.51293
-87.494223
0
-120.50659
0
-93.387096
0
-111.44864
-133.02698
-132.99413
-146.67397
-170.51372
-121.99992
-155.71136
-144.57807
-72.602651
0
0
0
0
-63.803204
0
-127.71866
-144.24085
-154.34737
-125.475
-133.59689
-149.2978
-124.02823
-65.05348
-50.216092
0
0
-68.662637
-53.798237
0
-96.191024
-117.07812
-126.22478
-89.867473
-103.76801
-117.79024
-107.71253
0
0
0
0
0
0
0
0
0
0
0
0
0
0
-82.079298
-140.74299
0
0
0
-110.21123
-117.30347
0
-60.001897
0
0
0
0
-58.515725
0
-79.713784
0
0
-78.126578
-94.196435
0
-141.50909
-121.18989
-131.21432
-112.66369
-133.61881
-127.87805
-133.62837
-102.26956
0
0
-103.57813
0
-97.976916
-107.81395
-150.68259
-137.60543
-152.85008
-181.4363
-129.38803
-161.86491
-160.27651
-90.541882
0
0
0
0
0
-75.532543
-140.32252
-147.93795
-155.9912
-123.86573
-122.68479
-153.1559
-130.1569
-94.870523
-72.935584
0
0
0
-86.011501
-78.644181
-144.09532
-123.00348
-139.26313
-159.83516
-136.76342
-141.61752
-149.25052
-87.037826
-111.76391
-76.747318
-78.02545
-66.464894
-98.364821
-107.37443
0
0
0
0
0
0
0
0
0
0
0
0
0
0
0
0
0
0
0
0
0
-89.407648
-143.42349
0
0
0
-123.49429
-118.35098
0
-39.375691
0
0
0
-48.774389
0
0
-71.379602
0
0
-55.396838
-99.444617
0
0
0
0
0
0
0
0
0
0
0
0
0
0
0
0
0
0
0
0
0
0
0
0
0
0
-135.5501
-131.00598
-97.924064
0
0
0
-100.36036
0
-89.985196
0
0
0
0
-153.15911
-139.42797
0
-122.39587
-113.7588
-162.56243
-155.69076
-193.90994
-157.02657
-140.19516
-159.4338
-93.414998
-81.496416
-109.17953
-93.383465
-75.31507
-111.25943
-102.80433
-71.484157
0
0
0
0
0
0
-97.481807
0
-103.13405
0
-97.825031
0
-102.89152
-84.294758
-100.24115
0
-116.21517
-91.510386
0
-113.3722
-122.8869
-109.39581
-132.75528
-145.38238
-122.20474
-123.67889
-137.82687
-128.81947
-157.33722
-160.94072
-150.10266
-135.47752
-140.1357
-146.02883
-96.544404
0
0
-83.021908
-82.768309
0
-96.327072
0
0
0
-76.698482
0
0
0
-69.098553
-82.810066
-75.600456
-91.666674
-86.024334
-81.67996
-99.257941
-101.37574
0
0
-119.13777
0
-108.81884
-117.83755
0
-86.241177
-77.767451
-102.40066
-123.88789
-105.48776
-113.90676
-98.286609
0
0
-112.16099
0
-98.19794
-115.65969
-103.23861
-94.56653
-104.91368
-121.6993
-92.668489
-109.58788
-119.00997
-120.22303
-151.11308
-151.81694
-139.70768
-137.35511
-129.53222
-135.5775
-127.30952
0
0
-131.78378
0
-126.72388
-126.49312
-149.22961
-148.97755
-179.91233
-170.48582
-136.45955
-153.23227
-175.04005
-91.497339
0
0
0
0
0
-71.253931
-113.19331
0
0
-111.62314
0
-122.90533
-93.261262
-148.66521
-152.92931
-153.39263
-187.61117
-149.23502
-172.06247
-145.76339
-140.00429
-175.18919
-95.949432
-194.67355
-122.38329
-187.57282
-130.82996
0
0
0
0
0
0
0
0
0
0
-148.25371
-132.52151
0
-127.30147
-116.16896
-178.4118
-168.77284
-179.67972
-149.9383
-140.20252
-154.29752
0
0
0
0
0
0
0
0
0
-72.164849
0
0
0
-61.754574
-72.947294
0
-147.17812
0
0
-100.0624
-126.25299
-96.187095
0
-106.53279
0
-108.92365
0
-103.30517
-149.42164
-144.68294
-188.64619
-169.49881
-137.54583
-155.90118
-181.54643
-155.37389
-144.66658
-176.73665
-168.35973
-159.30995
-153.83463
-182.39012
-154.42339
-175.39803
-159.84068
-192.08839
-153.35495
-183.25378
-162.26933
-73.591174
0
0
0
0
0
-58.590128
-83.10801
0
-80.080851
0
0
-90.207841
-73.678208
-149.09249
-157.50571
-174.01817
-87.349871
-117.27884
-184.98507
-127.44683
0
0
0
0
0
0
0
0
0
0
0
0
0
0
0
0
0
0
0
0
0
0
0
0
-93.375231
0
0
-78.622536
0
0
0
-145.47524
0
-114.65424
-120.95502
-108.50995
-153.02691
-181.7548
-188.07624
-149.1529
-141.93772
-157.81945
-65.045864
0
0
-161.58089
0
-102.50106
-129.66292
0
0
0
0
0
0
0
0
0
0
0
0
0
0
0
0
0
0
0
0
0
0
0
0
0
0
0
0
0
0
0
0
0
0
0
0
0
0
0
0
0
0
0
0
0
0
0
0
0
0
0
0
0
0
0
0
0
0
0
0
0
0
0
0
0
0
0
0
0
0
0
0
0
0
0
0
0
0
0
0
0
0
0
0
0
0
0
0
0
0
0
0
0
0
0
0
0
0
0
0
0
0
0
0
0
0
0
0
0
0
0
0
0
0
0
0
0
0
0
0
0
0
0
0
0
0
0
0
0
0
0
0
0
-116.84696
-107.7889
-109.1434
-141.73388
-98.053738
-131.32381
-126.61958
-147.1139
-121.94196
-150.55691
-140.77413
-137.15162
-134.92978
-159.72251
0
0
0
0
0
0
0
0
0
0
0
0
0
0
0
0
0
0
0
0
0
0
0
0
0
0
0
0
0
0
0
0
0
0
0
0
0
0
0
0
0
0
0
0
0
0
0
0
0
0
0
0
0
0
0
0
0
0
0
0
0
0
0
0
0
0
0
0
0
0
0
0
0
0
0
0
0
0
0
0
0
0
0
0
0
0
0
0
0
0
0
0
0
0
0
0
0
0
0
0
0
0
0
0
0
0
0
0
0
0
0
0
0
0
0
0
0
0
0
0
0
0
0
0
0
0
0
0
0
0
0
0
0
0
0
0
0
0
0
0
0
0
0
0
0
0
0
0
0
0
0
0
0
0
0
0
0
0
0
0
0
0
0
0
0
0
0
0
0
0
0
0
0
0
0
0
0
0
0
0
0
0
0
0
0
0
0
0
0
0
0
0
0
0
0
0
0
0
0
0
0
0
0
0
0
0
0
0
0
0
0
0
0
0
0
0
0
0
0
0
0
0
0
0
0
0
0
0
0
0
0
0
0
0
0
0
0
0
0
0
0
0
0
0
0
0
0
0
0
0
0
0
0
0
0
0
0
0
0
0
0
0
0
0
0
0
0
0
0
0
0
0
0
0
0
0
0
0
0
0
0
0
0
0
0
0
0
0
0
0
0
0
0
0
0
0
0
0
0
0
0
0
0
0
0
0
0
0
0
0
0
0
0
0
0
0
0
0
0
0
0
0
0
0
0
0
0
0
0
0
0
0
0
0
0
0
0
0
0
0
0
0
0
0
0
0
0
0
0
0
0
0
0
0
0
0
0
0
0
0
0
0
0
0
0
0
0
0
0
0
0
0
0
0
0
0
0
0
0
0
0
0
0
0
0
0
0
0
0
0
0
0
0
0
0
0
0
0
0
0
0
0
0
0
0
0
0
0
0
0
0
0
0
0
0
0
)


2249
(
0
0
0
0
0
0
0
0
0
0
0
0
0
0
0
0
0
0
0
0
0
0
0
0
0
0
0
0
0
0
0
0
0
0
0
0
0
0
0
0
0
0
0
0
0
0
0
0
0
0
0
0
0
0
0
0
0
0
0
0
0
0
0
0
0
0
0
0
0
0
0
0
0
0
0
0
0
0
0
0
0
0
0
0
0
0
0
0
0
0
0
0
0
0
0
0
0
0
0
0
0
0
0
0
0
0
0
0
0
0
0
0
0
0
0
0
0
0
0
0
0
0
0
0
0
0
0
0
0
0
0
0
0
0
0
0
0
0
0
0
0
0
0
0
0
0
0
0
0
0
0
0
0
0
0
0
0
0
0
0
0
0
0
0
0
0
0
0
0
0
0
0
0
0
0
0
0
0
0
0
0
0
0
0
0
0
0
0
0
0
0
0
0
0
0
0
0
0
0
0
0
0
0
0
0
0
0
0
0
0
0
0
0
0
0
0
0
0
0
0
0
0
0
0
0
0
0
0
0
0
0
0
0
0
0
0
0
0
0
0
0
0
0
0
0
0
0
0
0
0
0
0
0
0
0
0
0
0
0
0
0
0
0
0
0
0
0
0
0
0
0
0
0
0
0
0
0
0
0
0
0
0
0
0
-82.449345
0
0
0
0
0
0
0
0
0
0
0
0
-163.11288
0
0
0
0
0
0
0
0
0
0
0
0
0
0
0
0
0
0
0
0
0
0
0
0
0
0
0
0
0
0
0
0
0
0
0
0
0
0
0
0
0
0
0
0
0
0
0
0
0
0
0
0
0
0
0
0
0
0
0
0
0
0
0
0
0
0
0
0
0
0
0
0
0
0
0
0
0
0
0
0
0
0
0
0
0
0
0
0
0
0
0
0
0
0
0
0
0
0
0
0
0
0
0
0
0
0
0
0
0
0
0
0
0
0
0
0
0
0
0
0
0
0
0
0
0
0
0
0
0
0
0
-64.757443
-42.555304
-88.618692
0
0
-104.69196
0
0
0
-77.002041
0
0
0
-58.394308
0
-35.830341
-82.935117
-70.991393
-101.37629
0
-107.27524
-60.110556
-146.87461
0
-34.914816
-123.21492
0
-86.502278
0
0
0
0
0
0
-110.40511
0
-140.41493
0
-45.467352
0
-124.88729
-77.202044
0
0
0
0
0
0
0
0
0
0
0
0
0
0
0
0
0
0
0
0
0
0
0
0
0
0
0
0
0
0
0
0
0
0
0
0
0
0
0
0
0
0
0
0
0
0
0
0
0
0
0
0
0
0
0
0
0
0
0
0
0
0
0
0
0
0
0
0
0
0
0
0
0
0
0
0
0
0
0
0
0
0
0
0
0
0
0
0
0
0
0
0
0
0
0
0
0
0
0
0
0
0
0
0
0
0
0
0
0
0
0
0
0
0
0
0
0
0
0
0
0
0
0
0
0
0
0
0
0
0
0
0
0
0
0
0
0
0
0
0
0
0
0
0
0
0
0
0
0
0
0
0
0
0
0
0
0
0
0
0
0
0
0
-162.74535
-72.485713
0
0
0
-114.90563
-155.82215
0
0
-68.301986
-68.446039
0
0
-113.26761
-160.73003
-54.945003
-145.5246
0
0
-137.18999
-167.99368
-119.91414
0
0
0
-177.23573
0
0
-104.22315
0
-144.51639
-136.49113
-167.62343
0
0
-125.62301
0
0
0
0
0
-172.12471
-93.797707
0
0
0
0
0
0
0
0
0
0
0
0
0
0
0
0
0
0
0
0
0
0
0
0
0
0
0
0
0
0
0
0
0
0
0
0
0
0
0
0
0
0
0
0
0
0
0
0
0
0
0
0
0
0
0
0
0
0
0
0
0
0
0
0
0
0
0
0
0
0
0
0
0
0
0
0
0
0
0
0
0
0
0
0
0
0
0
0
0
0
0
0
0
0
0
0
0
0
-39.853915
0
0
-45.958322
0
0
0
-87.644416
0
0
-104.28524
-72.287609
0
0
0
0
0
-79.922885
-92.778854
0
0
0
0
0
-90.576405
0
0
0
0
0
0
0
0
0
0
0
0
0
0
0
0
0
0
0
0
0
0
0
0
0
0
0
0
0
0
0
0
0
0
0
-58.840102
0
0
0
-52.195079
0
0
0
0
-67.007676
0
0
-85.28813
-78.390092
0
0
0
0
0
-78.514916
-98.959948
0
0
0
0
-93.781477
0
0
0
0
0
0
0
0
0
0
0
0
0
0
0
0
0
0
0
0
0
0
0
0
0
0
0
0
0
0
0
0
0
0
0
0
0
0
0
0
0
0
0
0
0
0
0
0
0
0
0
0
0
0
0
0
0
0
0
0
0
0
0
0
0
0
0
0
0
0
0
0
0
0
0
0
0
0
0
0
0
0
0
0
0
0
0
0
0
0
0
0
0
0
0
0
0
0
0
0
0
0
0
0
0
0
0
0
0
0
0
0
0
0
0
-45.623094
-50.459231
-37.611608
-55.431217
-62.637601
-90.866161
-61.895088
-68.771433
-53.160186
-69.309743
0
0
-41.459868
0
0
-32.931094
0
0
0
-41.794526
0
-37.502436
-49.748862
0
0
0
0
-121.55101
0
-119.68398
-97.613687
0
0
0