/*--------------------------------*- C++ -*----------------------------------*\
  =========                 |
  \\      /  F ield         | OpenFOAM: The Open Source CFD Toolbox
   \\    /   O peration     | Website:  https://openfoam.org
    \\  /    A nd           | Version:  8
     \\/     M anipulation  |
\*---------------------------------------------------------------------------*/
/*   Windows 32 and 64 bit porting by blueCAPE: http://www.bluecape.com.pt   *\
|  Based on Windows porting (2.0.x v4) by Symscape: http://www.symscape.com   |
\*---------------------------------------------------------------------------*/
FoamFile
{
    version     2.0;
    format      ascii;
    class       scalarListList;
    location    "constant/air";
    object      divqrsw;
}
// * * * * * * * * * * * * * * * * * * * * * * * * * * * * * * * * * * * * * //


5
(

5972
(
0
0
0
0
0
0
0
0
0
0
0
0
0
0
0
0
0
0
0
0
0
0
0
0
0
0
0
0
0
0
0
0
0
0
0
0
0
0
0
0
0
0
0
0
0
0
0
0
0
0
0
0
0
0
0
0
0
0
0
0
0
0
0
0
0
0
0
0
0
0
0
0
0
0
0
0
0
0
0
0
0
0
0
0
0
0
0
0
0
0
0
0
0
-44.791833
0
0
0
0
0
0
0
0
0
0
0
0
0
0
0
0
-129.22582
0
0
0
0
0
0
0
0
0
0
0
0
0
0
0
0
0
0
0
0
0
0
0
0
0
0
0
0
0
0
0
0
0
0
0
0
0
0
0
0
0
0
0
0
0
0
0
0
0
0
0
0
0
0
0
0
0
0
0
0
0
0
0
0
0
0
0
0
0
0
0
0
0
0
0
0
0
0
0
0
0
0
0
0
0
0
0
0
0
0
0
0
0
0
0
0
0
0
0
0
0
0
0
0
0
0
0
0
0
0
0
0
0
0
0
0
0
0
0
0
0
0
0
0
0
0
0
0
0
0
0
0
0
0
0
0
0
0
0
0
0
0
-140.06314
0
0
-55.645673
0
0
0
0
0
0
0
0
0
0
0
0
0
0
0
0
0
0
0
0
0
0
0
0
0
0
0
0
0
0
0
0
0
0
0
0
0
0
0
0
0
0
0
0
0
0
0
0
0
0
0
0
0
0
0
0
0
0
0
0
0
0
0
0
0
0
0
0
0
0
0
0
0
0
0
0
0
0
0
0
0
0
0
0
0
0
0
0
0
0
0
0
0
0
0
0
0
0
0
0
0
0
0
0
0
0
0
0
0
0
0
0
0
0
0
0
0
0
0
0
0
0
0
0
0
0
0
0
0
0
0
0
0
0
0
0
0
0
0
0
0
0
0
0
0
0
0
0
0
0
0
0
0
0
0
0
0
0
0
0
0
0
-53.451129
-48.847357
-84.605199
0
0
0
0
-122.83595
0
-125.24012
-82.242801
0
0
0
-109.79895
-54.475552
-89.772665
-76.251685
0
0
0
-96.888949
0
0
0
0
0
0
0
0
0
0
0
0
0
0
0
-111.42208
-136.70915
0
0
0
0
-141.59819
0
0
0
0
0
0
0
0
0
0
0
0
0
0
0
0
0
0
0
0
0
0
0
0
0
0
0
0
0
0
0
0
0
0
0
0
0
0
0
0
0
0
0
0
0
0
0
0
0
0
0
0
0
0
0
0
0
0
0
0
0
0
0
0
0
0
0
0
0
0
0
0
0
0
0
0
0
0
0
0
0
0
0
0
0
0
0
0
0
0
0
0
0
0
0
0
0
0
0
0
0
0
0
0
0
0
0
0
0
0
0
0
0
0
0
0
0
0
0
0
0
0
0
0
0
0
0
0
0
0
0
0
0
0
0
0
0
0
0
0
0
0
0
0
0
0
0
0
0
0
0
0
0
0
0
0
0
0
0
0
0
0
0
0
0
0
0
0
0
0
0
0
0
0
0
0
0
0
0
0
0
0
0
0
0
0
0
0
0
0
0
0
0
0
0
0
0
0
0
0
0
0
0
0
0
0
0
0
0
0
0
0
0
0
0
0
0
0
0
0
0
0
0
-56.76285
0
-144.67623
-157.05002
0
0
0
0
0
0
0
0
0
0
0
0
0
-79.571443
0
0
0
0
0
0
0
0
0
0
0
0
0
0
0
-135.54244
0
0
0
0
0
0
0
0
0
0
0
0
0
0
0
0
0
0
0
0
0
0
0
0
0
0
0
0
0
0
0
0
0
0
0
0
0
0
0
0
0
0
0
0
0
0
0
0
0
0
0
0
0
0
0
0
0
0
0
0
0
0
0
0
0
0
0
0
0
0
0
0
0
0
0
0
0
0
0
0
0
0
0
0
0
0
0
0
0
0
0
0
0
0
0
0
0
0
0
0
0
0
0
0
0
0
0
0
0
0
0
0
0
0
0
0
0
0
0
0
0
0
0
0
0
0
0
0
0
0
0
0
0
0
0
0
0
0
0
0
0
0
0
0
0
0
0
0
0
0
0
0
0
0
0
0
0
0
0
0
0
0
0
0
0
0
0
0
0
0
0
0
0
0
0
0
0
0
0
0
0
0
0
0
0
0
0
0
0
0
0
0
0
0
0
0
0
0
0
0
0
0
0
0
0
0
0
0
0
0
0
0
0
0
-44.571709
-49.023586
-71.780417
0
-65.08969
-98.849064
-41.068145
0
0
0
-53.445241
-57.186136
-82.332653
-25.880177
0
0
0
0
0
0
0
0
0
0
-104.45629
-59.688201
-100.82482
-77.013511
-141.85721
-120.1289
-132.87465
-151.76698
-130.36317
-107.68847
0
0
0
0
0
0
0
-121.00697
-70.902417
-118.28686
-90.899584
0
0
0
-122.70615
0
-112.38325
-121.69662
0
0
0
0
-48.846227
0
0
0
0
0
0
0
0
0
0
0
-17.31243
0
0
0
0
0
0
0
0
0
0
0
0
-56.742255
-38.023325
-22.251116
0
0
0
0
0
0
0
0
0
0
0
0
0
0
0
0
0
0
0
0
0
0
0
0
0
0
0
0
0
0
0
0
0
0
0
0
0
0
0
0
0
-109.09811
0
0
0
0
0
-68.498044
0
0
0
0
0
0
0
0
0
0
0
0
0
0
0
0
0
0
0
0
0
0
0
0
-122.38538
-91.389996
-101.72056
0
-81.194527
0
0
0
0
0
0
0
0
0
0
0
0
0
0
0
0
0
0
0
0
0
0
0
0
0
0
0
0
0
0
0
0
0
0
0
0
0
0
0
0
0
0
0
0
0
0
0
0
0
0
0
0
0
0
0
0
0
0
0
0
0
0
0
0
0
0
0
0
0
0
0
0
0
0
0
0
0
0
0
0
0
0
0
0
0
-97.456281
-137.78382
0
0
0
0
0
0
0
0
0
0
0
0
0
0
0
0
0
0
0
0
0
0
0
0
0
0
0
0
0
0
0
0
0
0
0
0
0
0
0
0
0
0
0
0
0
0
0
0
0
0
0
0
0
0
0
0
0
0
0
0
0
0
0
0
0
0
0
0
0
0
0
0
0
0
0
0
0
0
0
0
0
0
0
0
0
0
0
0
0
0
0
0
0
0
0
0
0
0
0
0
0
0
0
0
0
0
0
0
0
0
0
0
0
0
0
0
0
0
0
0
0
0
0
0
0
0
0
0
0
0
0
0
0
0
0
0
0
0
0
0
0
0
0
0
0
0
0
0
0
0
0
0
0
0
0
0
0
0
0
0
0
0
0
0
0
0
0
0
0
0
0
0
0
0
0
0
0
0
0
0
0
0
0
0
0
0
0
0
0
0
0
0
0
0
0
0
0
0
0
0
0
0
0
0
0
0
0
0
0
0
0
0
0
0
0
0
0
0
0
0
0
0
0
0
0
0
0
0
0
0
0
0
0
0
0
0
0
0
0
0
0
0
0
0
0
0
0
0
0
0
0
0
0
0
0
0
0
0
0
0
0
0
0
0
0
0
0
0
0
0
0
0
0
0
0
0
0
0
0
0
0
0
0
0
0
0
0
0
0
0
0
0
0
0
0
0
0
0
0
0
0
0
0
0
0
0
0
0
0
0
0
0
0
0
0
0
0
0
0
0
0
0
0
0
0
0
0
0
0
0
0
0
0
0
0
0
0
0
0
0
0
0
0
0
0
0
0
0
0
0
0
0
0
0
0
0
0
0
0
0
0
0
0
0
0
0
0
0
0
0
0
0
0
0
0
0
0
0
0
0
0
0
0
0
0
0
0
0
0
0
0
0
0
0
0
0
0
0
0
0
0
0
0
0
0
0
0
0
0
0
0
0
0
0
0
0
0
0
0
0
0
0
0
0
0
0
0
0
0
0
0
0
0
0
0
0
0
0
0
0
0
0
0
0
0
0
0
0
0
0
0
0
0
0
0
0
0
0
0
0
0
0
0
0
0
0
0
0
0
0
0
0
0
0
0
0
0
0
0
0
0
0
0
0
0
0
0
0
0
0
0
0
0
0
0
0
0
0
0
0
0
0
0
0
0
0
0
0
0
0
0
0
0
0
0
0
0
0
0
0
0
0
0
0
-60.678085
-97.120151
0
0
0
0
-120.65684
-95.310945
-120.9209
0
0
-99.865796
0
0
0
0
0
0
0
0
0
0
0
0
0
0
-71.681968
-103.43557
-52.790659
-115.28791
0
0
-96.193952
0
0
0
0
0
0
0
0
0
0
-100.96161
0
0
0
0
0
0
0
0
0
0
0
0
0
0
0
0
0
0
-126.56972
0
-141.51732
0
0
0
0
0
0
0
0
0
-86.038292
-115.92916
-178.93196
0
0
-122.73713
0
-57.801342
0
0
0
0
-74.314667
0
0
0
0
0
0
0
-144.29461
-83.481235
-179.89217
0
0
-117.216
0
0
0
0
-140.54283
0
0
0
0
0
0
0
0
0
0
0
0
0
0
0
0
0
0
0
0
0
0
0
0
0
0
0
0
0
0
0
0
0
0
0
0
0
0
0
0
0
0
0
0
0
0
0
0
0
0
0
0
0
0
0
0
0
0
0
0
0
0
0
0
0
0
0
0
0
0
0
0
0
0
0
0
0
0
0
0
0
0
0
0
0
0
0
0
0
0
0
0
0
0
0
0
0
0
0
0
0
0
0
0
0
0
0
0
0
0
0
0
-65.645899
-61.067089
0
0
-67.198239
0
0
-69.763656
-47.60794
0
-63.04487
0
-54.401754
-63.945765
-77.068816
-88.044421
-56.993492
-75.610388
-64.423461
0
0
0
0
0
0
-59.182925
0
0
0
0
0
0
0
-97.485788
-101.44235
-138.61935
-116.38841
-122.39075
-91.348801
-116.59317
0
0
0
0
-88.737897
0
0
0
0
-136.51334
0
-117.00637
0
0
0
0
-105.0542
-75.120516
-100.36091
0
0
0
0
0
0
0
0
0
0
0
0
0
0
0
0
0
0
0
0
0
0
0
-82.399441
-89.555452
-100.80274
-109.57204
-81.210689
-85.191115
-106.51856
-63.881353
0
-78.469332
-62.674799
0
-54.98082
-89.894812
-77.764693
-69.180796
-94.730607
-98.918583
-73.84871
-74.647966
-102.41178
-72.703428
0
-102.17254
-70.655064
0
-72.903021
-101.10975
0
0
0
0
0
0
0
0
-68.71654
-81.182821
-86.490156
-72.286587
-55.219524
0
0
0
0
-72.011441
-60.704102
0
0
0
0
0
0
0
0
0
0
0
0
0
0
0
0
0
0
0
0
0
0
0
0
0
0
0
0
0
0
-72.730928
-79.2822
-124.89046
-92.489176
-89.79592
-62.956105
-104.96625
-81.553578
-99.471614
-124.23708
-134.88013
-98.226079
-116.16582
-87.893041
0
0
0
0
0
0
0
0
0
0
0
0
0
0
0
0
-117.12889
0
0
-110.85985
0
0
-103.19016
-131.30009
-138.26056
0
-92.559533
-132.46833
0
0
0
0
0
0
0
0
0
0
0
0
0
0
0
0
0
0
0
0
0
0
0
0
0
0
0
0
0
0
0
0
0
0
0
0
0
0
0
0
0
0
0
0
0
0
0
0
0
0
0
0
0
0
0
0
0
0
0
0
0
0
0
0
0
0
0
0
0
0
0
0
0
0
0
0
0
0
0
0
0
0
0
0
0
0
0
0
0
0
0
0
0
0
0
0
0
0
0
0
0
0
0
0
0
0
0
0
0
0
0
0
0
0
0
0
0
0
0
0
0
0
0
0
0
0
0
0
0
0
0
0
0
0
0
0
0
0
0
0
0
0
0
0
0
0
0
0
0
0
0
0
0
0
0
0
0
0
0
0
0
0
0
0
0
0
0
0
0
0
0
0
0
0
0
0
0
0
0
0
0
0
0
0
0
0
0
0
0
0
0
0
0
0
0
0
0
0
0
0
0
0
0
0
0
0
0
0
0
0
0
0
0
0
0
0
0
0
0
0
0
0
0
-78.929234
0
0
0
0
0
0
0
0
0
-87.95625
0
0
0
0
0
0
0
0
0
0
0
0
0
0
0
0
0
0
0
0
0
0
0
0
0
-14.527269
0
0
0
-42.080693
-50.223318
-50.679463
-39.85369
0
0
0
0
0
0
0
-172.67389
-152.11431
-179.18777
-158.81934
-77.53012
-61.660095
-61.323114
-77.623987
0
0
-9.9575637
0
0
0
0
-35.290237
-48.931324
-42.721953
-34.929625
-32.202657
-37.864844
-47.223402
0
0
0
0
0
0
0
0
0
0
0
0
0
0
0
0
0
0
0
0
0
0
0
-105.40684
-112.10315
0
-104.03662
-107.80018
-102.29765
0
-78.403129
-79.515618
-129.58385
-138.48147
-171.3882
-105.2441
0
0
0
0
0
0
0
0
0
0
0
0
0
0
0
0
0
0
0
0
0
0
0
0
0
0
0
0
0
0
0
0
0
0
0
0
0
0
0
0
0
0
0
0
0
0
0
0
0
0
0
0
0
0
0
0
0
0
0
0
0
0
0
0
0
0
0
0
0
0
0
0
0
0
0
0
0
-119.42949
-121.01758
-143.29442
-126.5964
-129.99418
-138.6806
-103.59988
-73.317863
-61.300343
-70.306711
-54.662188
-69.219412
-76.882424
-59.676676
0
0
0
0
0
0
0
0
0
0
0
0
0
0
-153.21931
-127.27934
0
0
0
0
0
0
0
0
0
0
0
0
0
0
0
0
0
0
0
0
0
0
0
0
0
0
0
0
0
0
0
0
0
0
0
0
0
0
0
0
0
0
0
0
0
0
0
0
0
0
0
0
0
0
0
0
0
0
0
0
0
0
0
0
0
0
0
0
0
0
0
0
0
0
0
0
0
0
0
0
0
0
0
0
0
0
0
0
0
0
0
0
0
0
0
0
0
0
0
0
0
0
0
0
0
0
0
0
0
0
0
0
0
0
0
0
0
0
0
0
0
0
0
0
0
0
0
0
0
0
0
0
0
0
0
0
0
0
0
0
0
0
0
0
0
0
0
0
0
0
0
0
0
0
0
0
0
0
0
0
0
0
0
0
0
0
0
0
0
0
0
0
0
0
0
0
0
0
0
0
0
0
0
0
0
0
0
0
0
0
0
0
0
0
0
0
0
0
0
0
0
0
0
0
0
0
0
0
0
0
0
0
0
0
0
0
0
0
0
0
0
0
0
0
0
0
0
0
0
0
0
0
0
0
0
0
0
0
0
0
0
0
0
0
0
0
0
0
0
-71.97357
0
0
0
0
0
-160.60377
-141.86807
-147.83419
-162.61282
-145.28298
-145.28398
0
0
0
0
0
0
0
0
0
0
0
0
0
0
0
0
0
0
0
0
0
0
0
0
0
0
0
0
0
-80.251592
-71.333638
0
0
0
0
0
0
0
0
0
0
0
0
0
0
0
-126.52958
0
0
0
0
0
0
0
0
0
0
0
0
0
0
0
0
0
0
0
0
0
0
0
0
0
0
0
0
0
0
0
0
0
0
0
0
0
0
0
0
0
0
0
0
0
0
0
0
0
0
0
0
0
0
0
0
0
-80.3236
-105.78446
-55.370553
0
-80.003154
-83.671401
0
-58.364283
0
-55.367582
-102.31928
0
-37.876121
0
0
0
-43.701868
0
0
0
-39.534191
-13.561209
-99.642956
-129.82579
-76.02222
0
-86.618683
-94.899449
-125.13096
0
-79.508766
0
0
-74.681147
-98.805097
-88.779958
0
0
-72.319952
0
0
0
0
0
0
0
0
0
0
0
0
0
0
0
0
0
0
0
0
0
0
-55.363197
0
0
-35.882885
-44.804387
0
-31.512005
0
-48.962217
-38.88112
-41.232789
-38.894999
0
-55.287334
-65.098467
-48.740008
-39.947619
-58.353784
-52.810127
-45.775619
0
0
0
-29.925654
-35.238374
0
0
-76.955143
-76.08314
-81.783212
-88.24289
-109.51638
-91.88336
0
-22.615414
-38.050995
-32.532994
-29.653546
-30.973456
0
-18.836578
-19.642645
-24.189865
-15.45601
0
0
0
0
0
0
0
-18.383979
-24.941344
-19.004385
0
-24.628471
0
0
0
0
0
0
0
0
0
-64.154122
-47.616915
-48.486675
-43.045194
-51.869935
-57.957374
-39.86171
-44.654115
-53.843622
-56.788292
-44.830753
-47.162608
-53.857236
-42.400397
-35.928918
-25.091578
-30.421876
-31.600942
-73.542258
-55.471676
-67.257338
-75.312437
-60.007715
-66.825586
-62.555105
-38.503522
-33.755514
-34.782782
-25.530841
-40.902521
-32.152054
-33.270263
0
0
0
0
0
0
0
0
0
0
0
0
0
0
0
0
0
0
0
0
0
0
0
0
0
0
0
0
0
0
0
0
0
0
0
-88.303661
-91.681559
-76.319318
-72.459856
-101.20858
-85.873702
-85.474098
-59.426569
-48.16771
-72.68223
-58.496193
-47.551231
-72.060499
-59.407395
-71.996638
-83.701694
-100.19028
-86.935103
-86.219844
-84.064352
-71.845816
-60.646782
-83.683673
-67.818578
-59.697033
-62.66473
-50.547084
-71.724842
-160.18699
-169.23117
-148.61232
-137.31685
-174.45048
-145.67215
-153.45816
-158.41783
-135.28722
-136.82138
-152.67253
-175.92116
-144.0673
-139.55717
-142.97204
-152.42882
-173.04215
-160.2428
-165.23965
-133.94013
-142.88479
-141.5428
-143.94264
-148.00231
-158.54285
-158.26439
-179.07074
-182.94153
-146.1043
-183.59251
-154.50253
-176.22234
-120.36904
-134.32565
-130.53371
-114.81179
-124.18603
-127.09519
-107.10083
-98.992176
-123.23645
-117.57759
-99.607331
-120.73097
-105.53106
-82.650897
-66.438315
-86.216129
-69.221425
-65.30912
-84.926102
-83.357957
-94.596241
-113.85233
-113.97687
-95.097143
-100.86227
-116.85817
-102.30985
-122.04891
-100.70033
-121.11934
-102.13887
-99.623358
-81.297082
-73.929576
-84.304152
-69.635451
-84.02856
-94.587759
0
0
0
0
0
0
0
0
0
0
0
0
0
0
-104.16728
-137.94384
-116.38068
-108.76416
-117.73544
-98.826006
-130.78299
0
0
-115.53479
0
-126.92529
0
0
0
0
-114.08615
-118.41945
-94.764051
-124.85977
0
0
-132.97545
0
0
-116.96473
-129.44798
0
0
0
0
-37.537828
0
0
0
0
0
0
0
0
0
0
0
0
0
0
0
0
0
0
0
0
0
0
0
0
0
0
0
0
0
0
0
0
0
0
0
0
0
0
0
0
0
0
0
0
0
0
0
0
0
0
0
0
0
-13.686224
-14.774234
-16.644102
-11.459849
-12.635473
-14.621542
0
0
0
0
0
0
0
0
0
0
-12.453439
0
0
0
0
0
-16.02684
0
0
0
0
0
0
0
0
0
0
0
-38.319363
-52.98002
-55.514929
-43.281385
-40.63957
-41.31834
-51.496522
-31.656865
-40.806037
-26.418635
-35.768578
-29.509352
-25.873887
-42.205215
-27.725929
-27.706904
-19.765849
-22.992123
-25.510649
-29.747241
-20.650026
-25.420254
0
-19.288129
-17.049861
-23.146318
0
-18.143937
-33.729809
0
0
0
0
0
-43.554955
-29.737181
0
-33.30535
-23.588573
-31.614289
0
-21.420546
0
0
0
0
0
0
0
0
-95.348079
0
0
-106.50156
-99.085783
0
0
0
0
0
0
0
0
0
-80.067513
0
0
0
0
0
0
0
0
0
0
0
0
0
0
-73.85732
-67.706258
0
0
0
0
0
0
-70.863548
0
0
0
0
0
0
0
0
0
0
0
0
0
0
0
0
0
0
0
0
0
0
0
0
-92.723873
-103.71799
0
0
0
0
0
0
0
0
0
0
-123.75183
0
-91.281135
-116.57053
0
0
0
-75.553777
0
-93.255701
0
-111.08169
0
0
0
0
0
0
-103.73348
-107.52704
-117.7274
-120.04327
-100.69118
-109.27832
-116.19749
-110.14027
-102.48292
-108.20865
-92.064039
-108.37536
-109.74567
-105.17128
-103.45575
-107.08923
-113.95019
0
-107.09216
-129.5324
-116.41709
-104.35806
-123.33122
-111.47382
0
-110.34047
-92.820918
-112.33934
-111.20782
-107.77671
-90.626608
-102.13027
0
-84.509199
-90.245986
-100.45364
-101.39802
0
0
0
0
0
0
0
0
-79.389419
0
0
0
0
0
0
-88.263724
0
0
0
0
0
0
0
0
0
0
0
0
0
0
0
0
0
0
0
0
0
0
0
0
-111.08685
-120.94252
-123.07009
0
-153.50923
0
0
0
0
0
-125.26772
-134.7648
-168.37256
0
0
0
0
0
0
0
0
0
0
0
0
0
0
0
0
0
0
0
0
0
0
0
-87.072427
0
0
0
0
-72.31312
0
0
-104.11971
0
0
0
-78.975126
0
0
0
0
0
0
0
0
0
0
0
0
0
0
0
0
0
0
0
0
0
0
0
0
0
0
0
0
0
0
0
0
0
0
0
0
0
0
0
0
0
0
0
0
0
0
0
0
0
0
0
0
0
0
0
0
0
0
-73.591648
0
0
0
-67.367621
0
0
-88.081925
0
0
-76.407004
0
0
0
0
0
0
0
0
0
0
0
0
0
0
0
-101.49199
-99.604559
0
-83.571783
0
-116.64002
-82.634718
-119.80871
-134.7138
-125.12744
-114.45322
-124.60046
-134.85233
-114.75425
-109.92207
-114.79807
-116.02653
0
-135.28209
-87.70835
0
-115.86005
-129.76407
-120.27523
-107.24246
-135.41619
-115.66999
-101.88287
0
0
0
0
0
0
0
-99.215062
0
0
0
0
-104.61882
0
-107.35432
-92.879211
-110.31317
-95.06146
-84.621618
-116.60478
-107.0526
0
0
0
-66.415137
0
0
0
0
0
0
0
0
0
0
0
0
0
0
0
0
0
0
-72.037712
0
0
0
0
0
-77.307254
-66.636648
-87.945893
-69.32352
-83.343553
-64.56383
-81.223277
-88.425528
-86.778799
-110.81477
-100.4188
-84.934389
-94.894793
-103.36431
-68.398272
-54.215443
-49.201124
-68.99229
-69.058758
-54.76736
-63.495146
-91.83687
-104.54613
-118.10352
-102.41921
-102.64477
-92.195018
-106.20596
-67.652631
0
0
0
-55.347482
-67.030753
0
-81.3399
0
0
0
-78.403595
-94.912347
0
-82.558425
-98.155237
-82.836707
-89.961265
-83.763104
-96.574778
-76.890784
0
0
0
0
0
0
0
0
0
-98.709324
0
0
0
0
0
0
0
0
0
0
0
0
0
0
0
0
0
0
-91.475522
-140.9458
-102.63608
0
-120.08635
0
-141.58632
-103.56471
-145.74173
-107.23485
0
-142.08007
-151.48389
0
0
0
0
0
0
0
-110.00253
0
0
0
0
0
-115.26798
0
-121.29491
-112.3057
0
-108.68235
-93.32997
-135.38422
-98.026222
-135.20258
-132.88981
-138.75172
0
-155.54505
-109.18604
-113.8457
-159.10882
-156.40756
-186.09196
-174.28968
-172.75896
-183.01779
-141.39894
-108.13799
0
0
0
0
0
0
-137.47535
-154.61437
0
-111.63213
-100.01556
-164.59182
-122.78543
-144.51743
-118.62241
-169.15521
-116.89391
-108.89762
-152.26457
-166.68864
0
0
-55.590484
-55.322227
0
0
-50.271072
0
0
0
0
0
0
0
0
0
0
0
0
0
0
0
0
0
0
0
0
0
0
-62.923372
-65.953179
0
0
0
-56.456394
-164.79456
-160.18864
-137.56871
-137.54312
-156.28274
-132.46423
-166.83678
-171.14856
-122.2486
-105.55194
-83.941159
-87.721116
-118.37136
-108.77649
-87.250653
-176.64269
-177.59588
-174.7198
-180.99867
-167.19946
-184.61084
-179.63152
-126.46596
-114.70651
-84.389494
-87.085235
-111.82766
-130.72664
-87.037069
-140.19782
-153.79191
-94.590908
-108.22717
-142.49713
-156.54507
-96.277995
-138.22917
-158.48029
-100.60202
-112.49005
-136.52357
-157.26991
-98.262974
0
-105.37768
0
0
0
0
0
0
-125.86478
0
0
-136.23099
0
-111.22405
0
0
0
0
0
0
0
0
0
0
0
0
0
0
0
0
0
0
0
0
0
0
0
0
0
0
0
0
0
0
0
0
0
0
0
0
0
0
0
0
0
0
0
0
0
0
0
0
0
0
0
0
0
0
0
0
0
0
0
0
0
0
0
0
0
0
0
0
0
0
0
0
0
0
0
0
0
0
0
0
0
0
0
0
0
0
0
0
0
0
0
0
0
0
0
0
0
0
0
0
0
0
0
0
0
0
0
0
0
0
0
0
0
0
0
0
0
0
0
0
0
0
0
0
0
0
0
0
0
0
0
0
0
0
0
0
0
0
0
0
0
0
0
0
0
0
0
0
0
0
0
0
-81.467379
-74.868
0
0
0
0
0
0
0
0
0
0
0
0
0
0
0
0
-86.190105
0
0
0
0
0
0
0
0
-90.278767
0
0
0
0
0
0
0
0
0
0
0
0
0
0
0
0
0
0
-116.90095
-94.154838
-132.32089
-102.26164
-114.45419
-126.8074
-106.07879
-105.46631
0
-72.55713
0
0
-56.654705
-72.241535
0
0
0
0
0
0
0
0
-78.20267
0
0
0
-80.949901
0
-78.146783
0
-82.160293
-78.155348
0
0
-78.030694
0
0
0
0
0
0
0
0
0
-57.275731
-71.905589
0
-72.163763
0
0
0
0
0
0
0
0
0
-54.039008
-73.030487
-69.368438
-55.937296
-72.608473
-54.258769
-99.582122
-88.112655
-84.764702
-101.00671
-87.149203
0
0
0
0
-39.185908
0
-26.626527
0
0
0
0
0
0
0
0
0
0
0
0
0
0
0
0
0
0
0
0
0
0
-41.03152
-31.18927
0
0
-28.301631
0
0
0
0
0
0
0
0
0
0
0
0
0
0
0
0
-12.555653
0
-9.7011136
0
0
-12.689573
-40.356641
-27.3047
-28.904395
-29.426413
-40.551697
-40.874962
-28.271013
-19.9085
-17.11921
-22.625941
-22.88745
-14.269103
-20.784764
-17.319458
-124.83634
-129.89363
-53.8586
-74.351364
-56.054275
0
0
0
0
0
0
0
-78.336577
-46.597303
-54.117138
-98.561698
-109.54621
0
0
0
0
0
0
0
0
-76.78947
0
0
-68.923276
0
0
0
-106.20524
-99.684785
-98.482872
0
0
0
0
0
0
0
0
0
0
0
0
0
0
0
0
0
0
0
0
0
0
0
0
0
0
0
0
0
0
0
0
0
0
0
0
0
0
0
0
0
0
0
0
0
0
0
0
0
0
0
0
0
0
0
0
0
0
0
0
0
0
0
0
0
0
0
0
0
0
0
0
0
0
0
0
0
0
0
0
0
0
0
0
0
0
0
0
0
0
0
0
0
0
0
0
0
0
0
0
0
0
0
0
0
0
0
0
0
0
0
0
0
0
0
0
0
0
0
0
0
0
0
0
0
0
0
0
0
0
0
0
0
0
0
0
0
0
0
0
0
0
0
0
0
0
0
0
0
0
0
0
0
0
0
0
0
0
0
0
0
0
0
0
0
0
0
0
0
0
0
0
0
0
0
0
0
0
0
0
0
0
0
0
0
0
0
0
0
0
0
0
0
0
0
0
0
0
0
0
0
0
0
0
0
0
0
0
0
0
0
0
0
0
0
0
0
0
0
0
0
0
0
0
0
0
0
0
0
0
0
0
0
0
0
0
0
0
0
0
0
0
0
0
0
0
0
0
0
0
0
0
0
0
0
0
0
0
0
0
0
0
0
0
0
0
0
0
0
0
0
0
0
0
0
0
0
0
0
0
0
0
0
0
0
0
0
0
0
0
0
0
0
0
0
0
0
0
0
0
0
0
0
0
0
0
0
0
0
0
0
0
0
0
0
0
0
0
0
0
0
0
0
0
0
0
0
0
0
0
0
0
0
0
0
0
0
0
0
0
0
0
0
0
0
0
0
0
0
0
0
0
0
0
0
0
0
0
0
0
0
0
0
0
0
0
0
0
0
0
0
0
0
0
0
0
0
0
0
0
0
0
0
0
0
0
0
0
0
0
0
0
0
0
0
0
0
0
0
0
0
0
0
0
0
0
0
0
0
0
0
0
0
0
0
0
0
0
0
0
0
0
0
0
0
0
0
0
0
0
0
0
0
0
0
0
0
0
0
0
0
0
0
0
0
0
0
0
0
0
0
0
0
0
0
0
0
0
0
0
0
0
0
0
0
0
0
0
0
0
0
0
0
0
0
0
0
0
0
0
0
0
0
0
0
0
0
0
0
0
0
0
0
0
0
0
0
0
0
0
0
0
0
0
0
0
0
0
0
0
0
0
0
0
0
0
0
0
0
0
0
0
0
0
0
0
0
0
0
0
0
0
0
0
0
0
0
0
0
0
0
0
0
0
0
0
0
0
0
0
0
0
0
0
0
0
0
0
0
0
0
0
0
0
0
0
0
0
0
0
0
0
0
0
0
0
0
0
0
0
0
0
0
0
0
0
0
0
0
0
0
0
0
0
0
0
0
0
0
0
0
0
0
0
0
0
0
0
0
0
0
0
0
0
0
0
0
0
0
0
0
0
0
0
0
0
0
0
0
0
0
0
0
0
0
0
0
0
0
0
0
0
0
0
0
0
0
0
0
0
0
0
0
0
0
0
0
0
0
0
0
0
0
0
0
0
0
0
0
0
0
0
0
0
0
0
0
0
0
0
0
0
0
0
0
0
0
0
0
0
0
0
0
0
0
0
0
0
0
0
0
0
0
0
0
0
0
0
0
0
0
0
0
0
0
0
0
0
0
0
0
0
0
0
0
0
0
0
0
0
0
0
0
0
0
0
0
0
0
0
0
0
0
0
0
0
0
0
0
0
0
0
0
0
0
0
0
0
0
0
0
0
0
0
0
0
0
0
0
0
0
0
0
0
0
0
0
0
0
0
0
0
0
0
0
0
0
0
0
0
0
0
0
0
0
0
0
0
0
0
0
0
0
0
0
0
0
0
0
0
0
0
0
0
0
0
0
0
0
0
0
0
0
0
0
0
0
0
0
0
0
0
0
0
0
0
0
0
0
0
0
0
0
0
0
0
0
0
0
0
0
0
0
0
0
0
0
0
0
0
0
0
0
0
0
0
0
0
0
0
0
0
0
0
0
0
0
0
0
0
0
0
0
0
0
0
0
0
0
0
0
0
0
0
0
0
0
0
0
0
0
0
0
0
0
0
0
0
0
0
0
0
0
0
0
0
0
0
0
0
0
0
0
0
0
0
0
0
0
0
0
0
0
0
0
0
0
0
0
0
0
0
0
0
0
0
0
0
0
0
0
0
0
0
0
0
0
0
0
0
0
0
0
0
0
0
0
0
0
0
0
0
0
0
0
0
0
0
0
0
0
0
0
0
0
0
0
0
0
0
0
0
0
0
0
0
0
0
0
0
0
0
0
0
0
0
0
0
0
0
0
0
0
0
0
0
0
0
0
0
0
0
0
0
0
0
0
0
0
0
0
0
0
0
0
0
0
0
0
0
0
0
0
0
0
0
0
0
0
0
0
0
0
0
0
0
0
0
0
0
0
0
0
0
0
0
0
0
0
0
0
0
0
0
0
0
0
0
0
0
0
0
0
0
0
0
0
0
0
0
0
0
0
0
0
0
0
0
0
0
0
0
0
0
0
0
0
0
0
0
0
0
0
0
0
0
0
0
0
0
0
0
0
0
0
0
0
0
0
0
0
0
0
0
0
0
0
0
0
0
0
0
0
0
0
0
0
0
0
0
0
0
0
0
0
0
0
0
0
0
0
0
0
0
0
0
0
0
0
0
0
0
0
0
0
0
0
0
0
0
0
0
0
0
0
0
0
0
0
0
0
0
0
0
0
0
0
0
0
0
0
0
0
0
0
0
0
0
0
0
0
0
0
0
0
0
0
0
0
0
0
0
0
0
0
0
0
0
0
0
0
0
0
0
0
0
0
0
0
0
0
0
0
0
0
0
0
0
0
0
0
0
0
0
0
0
0
0
0
0
0
0
0
0
0
0
0
0
0
0
0
0
0
0
0
0
0
0
0
0
0
0
0
0
0
0
0
0
0
0
0
0
0
0
0
0
0
0
0
0
0
0
0
0
0
0
0
0
0
0
0
0
0
0
0
0
0
0
0
0
0
0
0
0
0
0
0
0
0
0
0
0
0
0
0
0
0
0
0
0
0
0
0
0
0
0
0
0
0
0
0
0
0
0
0
0
0
0
0
0
0
0
0
0
0
0
0
0
0
0
0
0
0
0
0
0
0
0
0
0
0
0
0
0
0
0
0
0
0
0
0
0
0
0
0
0
0
0
0
0
0
0
0
0
0
0
0
0
0
0
0
0
0
0
0
0
0
0
0
0
0
0
0
0
0
0
0
0
0
0
0
0
0
0
0
0
0
0
0
0
0
0
0
0
0
0
0
0
0
0
0
0
0
0
0
0
0
0
0
0
0
0
0
0
0
0
0
0
0
0
0
0
0
0
0
0
0
0
0
0
0
0
0
0
0
0
0
0
0
0
0
0
0
0
0
0
0
0
0
0
0
0
0
0
0
0
0
0
0
0
0
0
0
0
0
0
0
0
0
0
0
0
0
0
0
0
0
0
0
0
0
0
0
0
0
0
0
0
0
0
0
0
0
0
0
0
0
0
0
0
0
0
0
0
0
0
0
0
0
0
0
0
0
0
0
0
0
0
0
0
0
0
0
0
0
0
0
0
0
0
0
)


5972
(
0
0
0
0
0
0
0
0
0
0
0
0
0
0
0
0
0
0
0
0
0
0
0
0
0
0
0
0
0
0
0
0
0
0
0
0
0
0
0
0
0
0
0
0
0
0
0
0
0
0
0
0
0
0
0
0
0
0
0
0
0
0
0
0
0
0
0
0
0
0
0
0
0
0
0
0
0
0
0
0
0
0
0
0
0
0
0
0
0
0
0
0
0
-31.447129
0
0
0
0
0
0
0
0
0
0
0
0
0
0
0
0
-127.08678
0
0
0
0
0
0
0
0
0
0
0
0
0
0
0
0
0
0
0
0
0
0
0
0
0
0
0
0
0
0
0
0
0
0
0
0
0
0
0
0
0
0
0
0
0
0
0
0
0
0
0
0
0
0
0
0
0
0
0
0
0
0
0
0
0
0
0
0
0
0
0
0
0
0
0
0
0
0
0
0
0
0
0
0
0
0
0
0
0
0
0
0
0
0
0
0
0
0
0
0
0
0
0
0
0
0
0
0
0
0
0
0
0
0
0
0
0
0
0
0
0
0
0
0
0
0
0
0
0
0
0
0
0
0
0
0
0
0
0
0
0
0
-130.44962
0
0
-38.182553
0
0
0
0
0
0
0
0
0
0
0
0
0
0
0
0
0
0
0
0
0
0
0
0
0
0
0
0
0
0
0
0
0
0
0
0
0
0
0
0
0
0
0
0
0
0
0
0
0
0
0
0
0
0
0
0
0
0
0
0
0
0
0
0
0
0
0
0
0
0
0
0
0
0
0
0
0
0
0
0
0
0
0
0
0
0
0
0
0
0
0
0
0
0
0
0
0
0
0
0
0
0
0
0
0
0
0
0
0
0
0
0
0
0
0
0
0
0
0
0
0
0
0
0
0
0
0
0
0
0
0
0
0
0
0
0
0
0
0
0
0
0
0
0
0
0
0
0
0
0
0
0
0
0
0
0
0
0
0
0
0
0
-26.125001
-33.3233
-49.809473
0
0
0
0
-97.650765
0
-133.49618
-74.950432
0
0
0
-81.346264
-38.758997
-56.059667
-64.240478
0
0
0
-56.945925
0
0
0
0
0
0
0
0
0
0
0
0
0
0
0
-72.550949
-104.07624
0
0
0
0
-109.41066
0
0
0
0
0
0
0
0
0
0
0
0
0
0
0
0
0
0
0
0
0
0
0
0
0
0
0
0
0
0
0
0
0
0
0
0
0
0
0
0
0
0
0
0
0
0
0
0
0
0
0
0
0
0
0
0
0
0
0
0
0
0
0
0
0
0
0
0
0
0
0
0
0
0
0
0
0
0
0
0
0
0
0
0
0
0
0
0
0
0
0
0
0
0
0
0
0
0
0
0
0
0
0
0
0
0
0
0
0
0
0
0
0
0
0
0
0
0
0
0
0
0
0
0
0
0
0
0
0
0
0
0
0
0
0
0
0
0
0
0
0
0
0
0
0
0
0
0
0
0
0
0
0
0
0
0
0
0
0
0
0
0
0
0
0
0
0
0
0
0
0
0
0
0
0
0
0
0
0
0
0
0
0
0
0
0
0
0
0
0
0
0
0
0
0
0
0
0
0
0
0
0
0
0
0
0
0
0
0
0
0
0
0
0
0
0
0
0
0
0
0
0
0
-23.188876
0
-102.09021
-143.98322
0
0
0
0
0
0
0
0
0
0
0
0
0
-72.657492
0
0
0
0
0
0
0
0
0
0
0
0
0
0
0
-144.26968
0
0
0
0
0
0
0
0
0
0
0
0
0
0
0
0
0
0
0
0
0
0
0
0
0
0
0
0
0
0
0
0
0
0
0
0
0
0
0
0
0
0
0
0
0
0
0
0
0
0
0
0
0
0
0
0
0
0
0
0
0
0
0
0
0
0
0
0
0
0
0
0
0
0
0
0
0
0
0
0
0
0
0
0
0
0
0
0
0
0
0
0
0
0
0
0
0
0
0
0
0
0
0
0
0
0
0
0
0
0
0
0
0
0
0
0
0
0
0
0
0
0
0
0
0
0
0
0
0
0
0
0
0
0
0
0
0
0
0
0
0
0
0
0
0
0
0
0
0
0
0
0
0
0
0
0
0
0
0
0
0
0
0
0
0
0
0
0
0
0
0
0
0
0
0
0
0
0
0
0
0
0
0
0
0
0
0
0
0
0
0
0
0
0
0
0
0
0
0
0
0
0
0
0
0
0
0
0
0
0
0
0
0
0
-21.866423
-29.291479
-42.624466
0
-28.101196
-50.171168
-17.889186
0
0
0
-23.47835
-30.331249
-43.173205
-13.911753
0
0
0
0
0
0
0
0
0
0
-74.348942
-36.165757
-68.527567
-48.328166
-95.331388
-102.73694
-86.738555
-135.96696
-87.575054
-59.522846
0
0
0
0
0
0
0
-78.44718
-37.8839
-71.75208
-51.052875
0
0
0
-93.965395
0
-83.272437
-129.55141
0
0
0
0
-28.375794
0
0
0
0
0
0
0
0
0
0
0
-13.852195
0
0
0
0
0
0
0
0
0
0
0
0
-29.384427
-27.283633
-17.217459
0
0
0
0
0
0
0
0
0
0
0
0
0
0
0
0
0
0
0
0
0
0
0
0
0
0
0
0
0
0
0
0
0
0
0
0
0
0
0
0
0
-67.302771
0
0
0
0
0
-57.806238
0
0
0
0
0
0
0
0
0
0
0
0
0
0
0
0
0
0
0
0
0
0
0
0
-69.967052
-70.407191
-57.876558
0
-46.324384
0
0
0
0
0
0
0
0
0
0
0
0
0
0
0
0
0
0
0
0
0
0
0
0
0
0
0
0
0
0
0
0
0
0
0
0
0
0
0
0
0
0
0
0
0
0
0
0
0
0
0
0
0
0
0
0
0
0
0
0
0
0
0
0
0
0
0
0
0
0
0
0
0
0
0
0
0
0
0
0
0
0
0
0
0
-87.280317
-131.89223
0
0
0
0
0
0
0
0
0
0
0
0
0
0
0
0
0
0
0
0
0
0
0
0
0
0
0
0
0
0
0
0
0
0
0
0
0
0
0
0
0
0
0
0
0
0
0
0
0
0
0
0
0
0
0
0
0
0
0
0
0
0
0
0
0
0
0
0
0
0
0
0
0
0
0
0
0
0
0
0
0
0
0
0
0
0
0
0
0
0
0
0
0
0
0
0
0
0
0
0
0
0
0
0
0
0
0
0
0
0
0
0
0
0
0
0
0
0
0
0
0
0
0
0
0
0
0
0
0
0
0
0
0
0
0
0
0
0
0
0
0
0
0
0
0
0
0
0
0
0
0
0
0
0
0
0
0
0
0
0
0
0
0
0
0
0
0
0
0
0
0
0
0
0
0
0
0
0
0
0
0
0
0
0
0
0
0
0
0
0
0
0
0
0
0
0
0
0
0
0
0
0
0
0
0
0
0
0
0
0
0
0
0
0
0
0
0
0
0
0
0
0
0
0
0
0
0
0
0
0
0
0
0
0
0
0
0
0
0
0
0
0
0
0
0
0
0
0
0
0
0
0
0
0
0
0
0
0
0
0
0
0
0
0
0
0
0
0
0
0
0
0
0
0
0
0
0
0
0
0
0
0
0
0
0
0
0
0
0
0
0
0
0
0
0
0
0
0
0
0
0
0
0
0
0
0
0
0
0
0
0
0
0
0
0
0
0
0
0
0
0
0
0
0
0
0
0
0
0
0
0
0
0
0
0
0
0
0
0
0
0
0
0
0
0
0
0
0
0
0
0
0
0
0
0
0
0
0
0
0
0
0
0
0
0
0
0
0
0
0
0
0
0
0
0
0
0
0
0
0
0
0
0
0
0
0
0
0
0
0
0
0
0
0
0
0
0
0
0
0
0
0
0
0
0
0
0
0
0
0
0
0
0
0
0
0
0
0
0
0
0
0
0
0
0
0
0
0
0
0
0
0
0
0
0
0
0
0
0
0
0
0
0
0
0
0
0
0
0
0
0
0
0
0
0
0
0
0
0
0
0
0
0
0
0
0
0
0
0
0
0
0
0
0
0
0
0
0
0
0
0
0
0
0
0
0
0
0
0
0
0
0
0
0
0
0
0
0
0
0
0
0
0
0
0
0
0
0
0
0
0
0
0
0
0
0
0
0
0
0
0
0
0
0
-36.203669
-68.554217
0
0
0
0
-89.060628
-80.873801
-81.718699
0
0
-75.693173
0
0
0
0
0
0
0
0
0
0
0
0
0
0
-37.437326
-74.347209
-34.63407
-71.775548
0
0
-69.082738
0
0
0
0
0
0
0
0
0
0
-77.815957
0
0
0
0
0
0
0
0
0
0
0
0
0
0
0
0
0
0
-85.893104
0
-114.21545
0
0
0
0
0
0
0
0
0
-81.710525
-97.984946
-135.41698
0
0
-102.07149
0
-58.220232
0
0
0
0
-65.351026
0
0
0
0
0
0
0
-85.92241
-68.626049
-133.60368
0
0
-93.171645
0
0
0
0
-114.69219
0
0
0
0
0
0
0
0
0
0
0
0
0
0
0
0
0
0
0
0
0
0
0
0
0
0
0
0
0
0
0
0
0
0
0
0
0
0
0
0
0
0
0
0
0
0
0
0
0
0
0
0
0
0
0
0
0
0
0
0
0
0
0
0
0
0
0
0
0
0
0
0
0
0
0
0
0
0
0
0
0
0
0
0
0
0
0
0
0
0
0
0
0
0
0
0
0
0
0
0
0
0
0
0
0
0
0
0
0
0
0
0
-32.461629
-31.010738
0
0
-36.260452
0
0
-43.36941
-34.196206
0
-40.126675
0
-36.011367
-41.63132
-41.343434
-51.47899
-37.296397
-42.607972
-40.626471
0
0
0
0
0
0
-37.183665
0
0
0
0
0
0
0
-102.70529
-92.287445
-118.52771
-98.758107
-114.85091
-90.362958
-115.0906
0
0
0
0
-94.254456
0
0
0
0
-132.4857
0
-117.79205
0
0
0
0
-96.774724
-81.803666
-105.02851
0
0
0
0
0
0
0
0
0
0
0
0
0
0
0
0
0
0
0
0
0
0
0
-67.071215
-74.529112
-69.66766
-86.315971
-62.339958
-77.403686
-76.209112
-47.492248
0
-50.341242
-45.499199
0
-38.211962
-59.755802
-58.313073
-45.665085
-62.061773
-60.491552
-48.366148
-53.152348
-68.856607
-59.315353
0
-85.048609
-54.00584
0
-72.388317
-71.291115
0
0
0
0
0
0
0
0
-53.649274
-46.010472
-45.842063
-37.74043
-43.671216
0
0
0
0
-38.034085
-30.986579
0
0
0
0
0
0
0
0
0
0
0
0
0
0
0
0
0
0
0
0
0
0
0
0
0
0
0
0
0
0
-59.464861
-68.39364
-89.144273
-60.027902
-75.02142
-53.568916
-75.045186
-63.266048
-82.906439
-90.399644
-100.43114
-78.783658
-82.921417
-71.695025
0
0
0
0
0
0
0
0
0
0
0
0
0
0
0
0
-100.67359
0
0
-92.654019
0
0
-89.246513
-99.574054
-107.24191
0
-81.838911
-102.45782
0
0
0
0
0
0
0
0
0
0
0
0
0
0
0
0
0
0
0
0
0
0
0
0
0
0
0
0
0
0
0
0
0
0
0
0
0
0
0
0
0
0
0
0
0
0
0
0
0
0
0
0
0
0
0
0
0
0
0
0
0
0
0
0
0
0
0
0
0
0
0
0
0
0
0
0
0
0
0
0
0
0
0
0
0
0
0
0
0
0
0
0
0
0
0
0
0
0
0
0
0
0
0
0
0
0
0
0
0
0
0
0
0
0
0
0
0
0
0
0
0
0
0
0
0
0
0
0
0
0
0
0
0
0
0
0
0
0
0
0
0
0
0
0
0
0
0
0
0
0
0
0
0
0
0
0
0
0
0
0
0
0
0
0
0
0
0
0
0
0
0
0
0
0
0
0
0
0
0
0
0
0
0
0
0
0
0
0
0
0
0
0
0
0
0
0
0
0
0
0
0
0
0
0
0
0
0
0
0
0
0
0
0
0
0
0
0
0
0
0
0
0
0
-63.689951
0
0
0
0
0
0
0
0
0
-85.428781
0
0
0
0
0
0
0
0
0
0
0
0
0
0
0
0
0
0
0
0
0
0
0
0
0
-10.094423
0
0
0
-27.7577
-31.612629
-32.539011
-25.871957
0
0
0
0
0
0
0
-130.77075
-132.68551
-144.80284
-126.39491
-50.161173
-39.159455
-40.292597
-49.636012
0
0
-8.6811614
0
0
0
0
-22.715865
-30.490398
-30.330756
-26.15396
-24.727398
-24.418596
-29.168709
0
0
0
0
0
0
0
0
0
0
0
0
0
0
0
0
0
0
0
0
0
0
0
-70.554113
-73.267042
0
-103.51161
-103.27637
-95.549822
0
-77.997362
-80.713098
-116.87416
-127.54299
-149.38709
-97.861157
0
0
0
0
0
0
0
0
0
0
0
0
0
0
0
0
0
0
0
0
0
0
0
0
0
0
0
0
0
0
0
0
0
0
0
0
0
0
0
0
0
0
0
0
0
0
0
0
0
0
0
0
0
0
0
0
0
0
0
0
0
0
0
0
0
0
0
0
0
0
0
0
0
0
0
0
0
-100.76086
-112.07418
-118.5626
-112.48706
-106.55594
-112.18054
-94.554601
-46.966415
-37.912395
-48.778827
-36.616402
-47.763579
-48.815267
-36.422761
0
0
0
0
0
0
0
0
0
0
0
0
0
0
-101.39838
-81.724653
0
0
0
0
0
0
0
0
0
0
0
0
0
0
0
0
0
0
0
0
0
0
0
0
0
0
0
0
0
0
0
0
0
0
0
0
0
0
0
0
0
0
0
0
0
0
0
0
0
0
0
0
0
0
0
0
0
0
0
0
0
0
0
0
0
0
0
0
0
0
0
0
0
0
0
0
0
0
0
0
0
0
0
0
0
0
0
0
0
0
0
0
0
0
0
0
0
0
0
0
0
0
0
0
0
0
0
0
0
0
0
0
0
0
0
0
0
0
0
0
0
0
0
0
0
0
0
0
0
0
0
0
0
0
0
0
0
0
0
0
0
0
0
0
0
0
0
0
0
0
0
0
0
0
0
0
0
0
0
0
0
0
0
0
0
0
0
0
0
0
0
0
0
0
0
0
0
0
0
0
0
0
0
0
0
0
0
0
0
0
0
0
0
0
0
0
0
0
0
0
0
0
0
0
0
0
0
0
0
0
0
0
0
0
0
0
0
0
0
0
0
0
0
0
0
0
0
0
0
0
0
0
0
0
0
0
0
0
0
0
0
0
0
0
0
0
0
0
0
-29.031557
0
0
0
0
0
-120.5395
-106.89427
-119.89897
-133.06674
-127.5867
-124.46665
0
0
0
0
0
0
0
0
0
0
0
0
0
0
0
0
0
0
0
0
0
0
0
0
0
0
0
0
0
-76.695092
-60.764227
0
0
0
0
0
0
0
0
0
0
0
0
0
0
0
-121.76437
0
0
0
0
0
0
0
0
0
0
0
0
0
0
0
0
0
0
0
0
0
0
0
0
0
0
0
0
0
0
0
0
0
0
0
0
0
0
0
0
0
0
0
0
0
0
0
0
0
0
0
0
0
0
0
0
0
-71.74443
-79.778797
-41.334035
0
-66.205788
-77.256168
0
-70.934284
0
-40.991377
-75.086113
0
-31.772374
0
0
0
-59.628655
0
0
0
-32.381584
-13.311226
-90.856013
-111.13733
-79.735556
0
-77.199808
-85.161047
-100.40223
0
-71.568378
0
0
-41.815873
-80.162997
-52.798942
0
0
-70.825256
0
0
0
0
0
0
0
0
0
0
0
0
0
0
0
0
0
0
0
0
0
0
-27.690935
0
0
-18.437747
-23.236588
0
-22.144542
0
-29.994218
-22.257748
-24.49164
-25.257646
0
-36.215998
-35.327312
-32.219677
-27.022381
-35.896115
-29.686159
-30.483183
0
0
0
-16.862803
-19.514699
0
0
-34.355917
-33.936202
-39.642544
-42.322886
-53.930236
-45.890158
0
-12.165791
-19.782631
-14.980797
-15.113318
-16.789828
0
-12.474642
-13.596489
-16.13977
-10.272346
0
0
0
0
0
0
0
-9.8792345
-12.298007
-11.431875
0
-14.005489
0
0
0
0
0
0
0
0
0
-29.46667
-26.425595
-25.013709
-19.990255
-24.887828
-30.912841
-21.501448
-26.862924
-31.106503
-31.088584
-23.697047
-25.788616
-31.946603
-24.888329
-23.806072
-17.056299
-19.871332
-21.065589
-36.4383
-31.867684
-36.648692
-43.388858
-30.91117
-37.207415
-37.112341
-22.403118
-16.797668
-18.209673
-15.358738
-20.875487
-18.272459
-19.547722
0
0
0
0
0
0
0
0
0
0
0
0
0
0
0
0
0
0
0
0
0
0
0
0
0
0
0
0
0
0
0
0
0
0
0
-69.032509
-62.202869
-56.386032
-50.386743
-69.178751
-55.282698
-65.008321
-37.616358
-29.856922
-43.928661
-36.036795
-29.644038
-44.183151
-37.162397
-50.063967
-64.484967
-68.499255
-55.124902
-55.198963
-64.754686
-49.744539
-39.108536
-54.302598
-46.725833
-39.915047
-40.270928
-33.105319
-46.337693
-116.69033
-110.55923
-95.033012
-91.277845
-114.28991
-92.634079
-109.95487
-110.59015
-92.46304
-92.892956
-110.68964
-121.57793
-116.01395
-108.89098
-116.5913
-116.19065
-128.63219
-115.71235
-107.42269
-88.545138
-90.576884
-99.985964
-91.373468
-104.37031
-104.9544
-131.39036
-126.49598
-142.47283
-125.52346
-132.31189
-123.33115
-134.67453
-76.100918
-95.314124
-84.854736
-69.103866
-67.019951
-78.715783
-67.035518
-60.757501
-81.058158
-72.978075
-59.290654
-75.557694
-68.454571
-49.764924
-38.410225
-48.712745
-38.260124
-39.377687
-49.044408
-49.313859
-61.018945
-75.261811
-75.83122
-60.913001
-60.983132
-71.981514
-59.667524
-74.697873
-59.469946
-75.185439
-61.042452
-59.848841
-51.328708
-42.934287
-51.599197
-43.706323
-50.956178
-60.045295
0
0
0
0
0
0
0
0
0
0
0
0
0
0