/*--------------------------------*- C++ -*----------------------------------*\
  =========                 |
  \\      /  F ield         | OpenFOAM: The Open Source CFD Toolbox
   \\    /   O peration     | Website:  https://openfoam.org
    \\  /    A nd           | Version:  8
     \\/     M anipulation  |
\*---------------------------------------------------------------------------*/
/*   Windows 32 and 64 bit porting by blueCAPE: http://www.bluecape.com.pt   *\
|  Based on Windows porting (2.0.x v4) by Symscape: http://www.symscape.com   |
\*---------------------------------------------------------------------------*/
FoamFile
{
    version     2.0;
    format      ascii;
    class       polyBoundaryMesh;
    location    "constant/air/polyMesh";
    object      boundary;
}
// * * * * * * * * * * * * * * * * * * * * * * * * * * * * * * * * * * * * * //

14
(
    left
    {
        type            patch;
        nFaces          0;
        startFace       6912;
    }
    right
    {
        type            patch;
        nFaces          0;
        startFace       6912;
    }
    back
    {
        type            patch;
        nFaces          0;
        startFace       6912;
    }
    front
    {
        type            patch;
        nFaces          37;
        startFace       6912;
    }
    bottom
    {
        type            wall;
        inGroups        List<word> 1(wall);
        nFaces          14;
        startFace       6949;
    }
    top
    {
        type            patch;
        nFaces          39;
        startFace       6963;
    }
    tower
    {
        type            mappedWall;
        inGroups        List<word> 
2
(
wall
mappedPatch
)
;
        nFaces          0;
        startFace       7002;
        sampleMode      nearestPatchFace;
        sampleRegion    tower;
        samplePatch     buildings_to_air;
    }
    procBoundary5to0
    {
        type            processor;
        inGroups        List<word> 1(processor);
        nFaces          117;
        startFace       7002;
        matchTolerance  0.0001;
        myProcNo        5;
        neighbProcNo    0;
    }
    procBoundary5to1
    {
        type            processor;
        inGroups        List<word> 1(processor);
        nFaces          48;
        startFace       7119;
        matchTolerance  0.0001;
        myProcNo        5;
        neighbProcNo    1;
    }
    procBoundary5to6
    {
        type            processor;
        inGroups        List<word> 1(processor);
        nFaces          245;
        startFace       7167;
        matchTolerance  0.0001;
        myProcNo        5;
        neighbProcNo    6;
    }
    procBoundary5to8
    {
        type            processor;
        inGroups        List<word> 1(processor);
        nFaces          17;
        startFace       7412;
        matchTolerance  0.0001;
        myProcNo        5;
        neighbProcNo    8;
    }
    procBoundary5to9
    {
        type            processor;
        inGroups        List<word> 1(processor);
        nFaces          116;
        startFace       7429;
        matchTolerance  0.0001;
        myProcNo        5;
        neighbProcNo    9;
    }
    procBoundary5to18
    {
        type            processor;
        inGroups        List<word> 1(processor);
        nFaces          16;
        startFace       7545;
        matchTolerance  0.0001;
        myProcNo        5;
        neighbProcNo    18;
    }
    procBoundary5to19
    {
        type            processor;
        inGroups        List<word> 1(processor);
        nFaces          113;
        startFace       7561;
        matchTolerance  0.0001;
        myProcNo        5;
        neighbProcNo    19;
    }
)

// ************************************************************************* //
