/*--------------------------------*- C++ -*----------------------------------*\
  =========                 |
  \\      /  F ield         | OpenFOAM: The Open Source CFD Toolbox
   \\    /   O peration     | Website:  https://openfoam.org
    \\  /    A nd           | Version:  8
     \\/     M anipulation  |
\*---------------------------------------------------------------------------*/
/*   Windows 32 and 64 bit porting by blueCAPE: http://www.bluecape.com.pt   *\
|  Based on Windows porting (2.0.x v4) by Symscape: http://www.symscape.com   |
\*---------------------------------------------------------------------------*/
FoamFile
{
    version     2.0;
    format      ascii;
    class       scalarListList;
    location    "constant/vegetation";
    object      F;
}
// * * * * * * * * * * * * * * * * * * * * * * * * * * * * * * * * * * * * * //


493
(

1136
(
4.004107e-07
0.0001040092
4.5828489e-07
0.00011237285
9.583175e-05
4.5760483e-07
2.4933991e-05
2.2453992e-05
4.2278243e-07
0.00012215199
1.2840364e-06
0.00011965329
2.8787808e-05
3.5190271e-05
6.0052798e-05
0.00010365533
1.1710385e-05
5.1637485e-05
7.4342398e-05
4.653386e-05
2.0522739e-05
0.00041310232
0.00036104935
0.00051893803
0.00048754243
0.0004420912
0.00048607715
0.00048401682
0.00044221101
0.00053424907
0.00052581857
0.00017953479
0.00016931954
0.00015427484
0.00019537469
0.00015907885
0.00010843906
0.00013422563
0.00013388437
4.4910661e-05
4.9655455e-05
6.6101566e-05
5.6353873e-05
7.8196774e-05
0.00010486499
4.114403e-05
0.00021495442
0.00018032341
0.00020703391
0.00018783986
0.00021954036
0.00019428929
0.00019234082
0.00022120763
0.00021287549
0.00018346613
0.00018833661
0.00020697949
0.00021746588
0.00019403901
0.00022037678
0.00019194076
0.0001123987
0.00010342059
0.00016133363
0.00015078205
0.00017110677
0.00013593361
0.00019268737
0.00017763685
0.00020013211
0.0001713251
0.00018505743
0.00015835241
0.00017785509
0.00016485691
0.00011426316
0.00011817882
0.0001084631
0.00012511724
0.0001214922
0.0001446039
0.00013009134
0.00013407159
9.635273e-05
0.00010514063
0.00010059205
0.00018635179
0.00011970911
0.00011036284
0.00011621359
0.00049537209
0.00048297627
0.00016055368
0.00014477032
0.00012654857
0.00015456768
7.0256922e-05
7.6667389e-05
9.8969986e-05
0.00010117552
9.7699112e-05
0.00012475588
8.5977219e-05
0.00012365147
6.5311348e-05
9.5054468e-05
0.00017938633
0.00018395782
0.00018234114
0.00017704279
0.00018863697
0.00018706874
0.00018487587
0.00018606718
0.00017321038
0.00018117862
0.00017723135
0.00016762827
0.00018840149
0.00018604119
0.00018232349
0.00018536501
0.00012016943
0.00013562107
0.00017241552
0.00016589212
0.00014930797
0.00016992558
0.00012532948
0.00013234049
0.00013499867
0.00014071921
0.00015357103
0.00016039259
0.00014257983
0.00016398605
2.1781057e-05
1.5122715e-05
2.0852579e-05
1.7406069e-05
1.822511e-05
1.1920473e-05
1.4413377e-05
1.0456655e-05
7.5870193e-06
6.9975672e-08
4.3643414e-07
2.9159241e-06
3.0886631e-06
6.7475403e-08
1.3710309e-05
4.2875269e-08
8.3220519e-08
1.585588e-05
9.1290123e-08
1.9949212e-05
1.2893098e-05
3.2698475e-08
3.7252611e-08
1.6615797e-05
1.0090041e-07
9.6249857e-08
1.9072393e-05
1.0575974e-07
1.1057816e-07
2.7750006e-06
2.1690802e-06
3.8135519e-06
3.485654e-06
3.2201992e-06
2.8984188e-06
3.0187999e-06
3.7679767e-06
3.982594e-06
4.3746162e-06
4.1769149e-06
4.5799503e-06
4.791103e-06
6.9007972e-05
7.6921065e-05
8.8295063e-06
1.0334944e-05
1.079661e-05
8.1949817e-06
8.2515333e-06
5.7054933e-06
8.8500155e-05
4.5437028e-05
5.0570192e-05
1.8347696e-05
9.1075324e-05
1.638146e-05
3.9370221e-05
8.6426203e-06
6.0197938e-05
5.489844e-06
5.3563638e-06
1.3006296e-05
1.0750746e-05
7.6454612e-06
9.7945514e-06
5.6768142e-06
7.5283189e-06
6.7509623e-06
6.9583617e-06
9.3780323e-06
9.8300796e-06
1.4152955e-05
1.9026511e-05
1.6194923e-05
1.1530014e-05
8.8339723e-06
1.3212531e-05
2.8857595e-05
2.0163731e-05
2.1209326e-05
2.3432284e-05
2.1847702e-05
2.7254501e-05
2.5298446e-05
0.022162937
3.3840215e-07
1.0295719e-05
3.2519607e-08
7.2212632e-06
1.7816438e-06
2.6929672e-06
3.4719113e-06
2.0705382e-05
3.6187727e-05
3.6361758e-06
1.6491327e-05
2.6803527e-05
1.5815828e-05
5.0602204e-06
5.6841489e-06
2.1158381e-08
1.9478689e-05
1.8595778e-08
2.1762435e-05
4.5224244e-06
4.0540683e-06
2.3096267e-08
2.7387958e-05
2.2549313e-08
2.4379384e-05
7.5872287e-06
6.5184368e-06
1.4339506e-07
4.074607e-05
3.5203004e-07
3.8126384e-05
9.0592501e-06
1.1455829e-05
1.5076871e-07
3.0650778e-05
9.0461824e-08
3.4279013e-05
3.0688273e-06
2.8506047e-06
4.5537346e-08
1.747311e-05
1.4862937e-08
1.5596715e-05
3.331473e-06
3.6441826e-06
6.1293489e-08
1.2247273e-05
3.1380219e-08
1.3878976e-05
2.8302145e-06
2.767507e-06
8.3202955e-05
6.6065411e-05
8.1958197e-05
0.00010439499
0.00012492256
0.00010282656
9.8895708e-05
9.267241e-05
0.00014946143
0.0001672925
1.0574764e-05
1.3800811e-05
1.2134055e-05
1.1989791e-05
1.4303078e-05
1.5232038e-05
1.3222091e-05
1.6466268e-05
0.00012404945
0.00014830051
0.0001278157
0.00011730026
9.7597615e-06
1.101251e-05
1.3140819e-05
1.2137265e-05
8.3665113e-06
6.8273389e-06
1.402543e-05
1.4791591e-05
1.5440172e-05
1.5618571e-05
1.3640919e-05
1.4937231e-05
1.8955567e-05
1.7405546e-05
1.8817803e-05
2.3022952e-05
2.113025e-05
0.00016382925
0.000169324
6.5752002e-05
5.8439838e-05
7.1635028e-05
5.3079176e-05
5.8194594e-05
3.7108324e-05
4.890739e-05
4.6044568e-05
2.6701725e-05
3.8190741e-05
7.9010312e-05
6.2443945e-05
6.5269535e-05
7.6002181e-05
8.0804223e-05
6.7986784e-05
6.7066848e-05
8.152739e-05
7.8761134e-05
6.5098703e-05
6.660389e-05
7.6670677e-05
8.0359522e-05
6.8141115e-05
6.764258e-05
8.1329272e-05
1.1669042e-05
1.0398621e-05
8.3339096e-06
9.2988297e-06
1.3185699e-05
1.5097413e-05
2.1505496e-05
1.7704668e-05
8.9291428e-06
7.8062048e-06
1.015143e-05
7.026295e-06
5.6084004e-06
6.1184552e-06
7.481991e-06
6.7466262e-06
5.2490625e-06
4.9438197e-06
1.5245552e-05
1.8423899e-05
1.7524905e-05
1.6053987e-05
1.9168355e-05
1.6731927e-05
1.9763864e-05
6.3209581e-05
7.1521941e-05
6.3221742e-05
7.4216946e-05
6.1129867e-05
6.8719183e-05
6.5990177e-05
5.8910647e-05
0.00014867303
0.00014210797
5.1734945e-06
2.0707357e-05
2.3348183e-05
3.0187553e-05
2.99369e-05
5.2946111e-05
4.7521888e-05
4.0224532e-05
4.9362667e-05
3.1829371e-05
4.0772372e-05
2.7044033e-05
3.9012833e-05
1.862937e-05
1.6654255e-05
2.448215e-05
2.727269e-05
1.3351874e-05
1.4909356e-05
2.2044922e-05
1.9570527e-05
8.6140256e-06
1.1384119e-05
9.5505206e-06
1.4242979e-05
1.1850952e-05
1.0580131e-05
1.3938274e-05
1.738391e-05
2.1792941e-05
2.2424958e-05
2.7186698e-05
2.6471741e-05
2.0987183e-05
1.9999058e-05
2.4371985e-05
2.5582879e-05
5.9547164e-05
5.7585832e-05
5.7391419e-05
6.0334981e-05
5.7277417e-05
5.3821172e-05
6.3404984e-05
6.2278185e-05
5.9302437e-05
6.0721576e-05
6.1657146e-05
6.290642e-05
6.0968442e-05
5.9612473e-05
6.3824728e-05
6.3633395e-05
6.1408151e-05
6.1361422e-05
0.0017876122
0.051521835
0.034309039
1.3360072e-05
0.0001067731
6.734777e-05
0.00030669565
0.00011000884
0.00012711492
0.00026852634
0.00026434175
0.0001962399
0.00016621853
0.00018121874
0.00017896711
0.00026492344
0.00025590175
0.00014819101
0.00015210792
0.00013900409
0.00016292559
0.00017998984
0.00022164849
0.00024957152
0.00021455765
0.00021286772
0.00019688807
0.00023357683
0.00022298318
0.00021936166
0.0002021434
0.00027117843
0.00022860688
0.00024331661
0.00025273797
0.00013478529
0.00011564989
0.00012690519
0.00012276373
0.00010034011
0.00010398351
8.7067808e-05
0.00011180537
0.00024541074
0.00026909748
0.00012478733
0.00013800469
0.00012011143
0.00014395825
0.0001291558
0.00014947245
0.00015036627
0.00014545287
0.00013685309
0.00016051034
0.0001657856
0.00019735336
0.00018305774
0.00017775145
0.00010973407
0.00013170186
0.00011522495
0.00012457682
0.0001069799
7.1218901e-05
0.00011610906
0.00011252047
0.00010873355
0.00010076138
0.00010490898
0.0001547579
0.00016304571
0.00017255511
0.00020373551
0.00021525502
0.00019176167
0.00020071254
0.00025041855
0.020890542
0.00013765121
0.00012439733
0.00014551837
0.00014546122
1.3930531e-06
0.00062499005
1.4516233e-06
0.00047756008
0.00017548896
0.00014983953
8.489597e-07
0.0014106899
1.1301928e-06
0.0011728505
0.0002058351
0.00024298098
2.4173026e-06
0.00077943173
3.052029e-06
0.00096075648
0.00017650893
3.3284466e-05
0.00058151934
4.4752259e-06
0.00037414194
0.00044265462
0.00042893251
2.1270347e-06
0.0026597152
2.050774e-06
0.0027660789
0.00044212955
0.00042742319
2.1318456e-06
0.0026703558
2.0656748e-06
0.0027697326
0.00036767578
0.00040284097
1.5656796e-06
0.0016759587
1.3547014e-06
0.0019573327
0.00032733244
0.00028441346
1.7648921e-06
0.0024832775
1.9377887e-06
0.0022353938
0.00032319754
0.00028041845
1.7322023e-06
0.0024672829
1.9134155e-06
0.0022164115
0.00036489156
0.0004005676
1.5224686e-06
0.0016564265
1.2803901e-06
0.0019372556
0.00020754614
0.00024056113
3.6557398e-06
0.00075541924
2.5495286e-06
0.00093834997
0.00017979305
0.00015792593
2.8120406e-06
0.0013928012
9.503622e-07
0.0011500769
0.00011546109
0.00012859908
0.0024521096
0.0021751599
0.0010636384
0.0030921095
0.0039003435
0.0033673019
0.00081444991
0.00099093524
0.0009064372
0.00095615449
0.0012948175
0.0030986174
0.0027050511
0.0013589844
0.0032910337
0.0012291566
0.00030286084
0.00030672072
0.00037782505
0.00044293874
0.00037949383
0.00044429938
0.0017610668
0.00028765316
0.00030036685
0.0013779525
0.0036431874
0.0039519132
0.00035045296
0.00042597619
0.00040063782
0.00036870586
0.0002319709
0.00022960857
0.00025451679
0.00021059077
0.0030853077
0.00099295383
0.00096583785
0.00089600643
0.000814219
0.0010923549
0.00018365517
0.00036670938
0.00042800093
0.0004287603
0.00036912002
0.00028351673
0.00024371591
0.00034782246
0.00035116174
0.00035679124
0.00035801405
0.00030968599
0.00041944968
0.00024356103
0.00033992079
0.00041164848
0.0003582844
0.00038676942
0.00033075884
0.00034439116
0.00032806449
0.00034069628
0.00037126589
0.00030375621
0.00025490511
0.00031057953
0.00028163641
0.00027903704
0.00022872671
0.00020901851
0.00017375742
0.00019064486
0.00047493938
0.00044180921
0.00048628734
0.00052830922
0.0023511323
0.00054106177
0.00073938717
0.00059655082
0.00059742943
0.00036876348
0.00040525128
0.00044151842
0.00039813759
0.00048622664
0.00052449402
0.00053188343
0.00043618756
0.00049938332
0.00050591629
0.00057534959
0.0005614664
9.9409968e-05
0.00010599142
0.0011270775
0.0016246103
0.00024618827
0.0002730881
0.0002862326
0.00028309432
0.00026110627
0.0002362859
0.0030938532
0.0021292893
0.0013711726
0.0018347299
0.0033019549
0.0024979641
0.0016256121
0.0013266154
0.00050279904
0.00050581434
0.0005771464
0.00062991924
0.00048361924
0.00045026357
0.00055783311
0.00060359466
0.0002430753
0.00027194824
0.00032371301
0.00028451117
0.00065737036
0.00070012538
0.00073471246
0.00063383605
0.00040889261
0.00048043255
0.00047255202
0.0005521875
0.00033671309
0.00030459435
0.00036006995
0.00036218986
0.00033887283
0.00041184498
0.0003888126
0.00039610601
0.00071995921
0.00086142083
0.00066248892
0.00078630446
0.00050594555
0.000585515
0.00069231219
0.00059204433
0.00034283301
0.00033926518
0.00040280977
0.00028978933
0.00028400226
0.00033644167
0.00046686177
0.00039758905
0.00033051428
0.00029575156
0.00024294018
0.00029812293
0.00026986214
0.00031756589
0.00032778291
0.00035786462
0.00029346605
0.0007983554
0.00082263606
0.00079571342
0.00082170002
0.00075206487
0.00068934971
0.0005412121
0.00061689736
0.00031278215
0.00029237809
0.00024951308
0.00027095603
0.00053512466
0.00061082963
0.00074805153
0.00068398612
0.0004616982
0.00039531869
0.00029352409
0.00033847052
0.00015459018
0.00013313732
0.00014226582
0.00016882414
0.00016638088
0.00014418829
0.00013974854
0.00015923469
0.00013668875
0.00016318894
0.00014612536
0.00017047515
0.00014548831
0.00017128974
0.00014610652
0.00017037959
0.00017126448
0.00014541228
0.00011844141
0.00013283209
0.00012697755
0.00011154928
0.00013715513
0.00012880407
0.0001185163
0.00015847257
0.00014498299
0.00017303209
0.000206975
0.00019092682
0.00018660345
0.00015689561
0.00015233344
0.00014246603
0.00016845081
0.00012924486
0.00015445511
0.00014974895
0.00013299264
0.00012548978
0.00014122894
0.00012202719
0.00014524854
0.00013955486
0.0001589851
0.00013648454
0.00016294031
0.00014210557
0.00016867196
0.00014407388
0.00016616974
0.0016512706
0.00024127576
0.000209403
0.00011940055
0.00012487482
0.00012234467
0.0001269525
0.00012854232
0.00013012195
0.0001295504
0.00013013776
0.00012961306
0.0001126771
0.0001094338
0.00011601538
0.0001192224
0.00012681775
0.00012844292
0.00012470523
0.00012215076
0.0023843739
0.0018602779
0.0025109318
0.0017858735
0.00040467543
0.00048039509
0.00048125465
0.00063361456
0.00066263396
0.00056518241
0.00065001931
0.00083134373
0.00037444109
0.00041259253
0.00050766119
0.00045482841
0.00033774494
0.00030344371
0.00036227399
0.00040834349
0.0010467872
0.00096587695
0.0011775283
0.0012695143
0.00076976333
0.0008711688
0.001076832
0.00095261749
0.0011060082
0.0011368832
0.0013637522
0.0013308005
0.0011008503
0.00113511
0.0013610525
0.0013107427
0.00065017539
0.00055621027
0.00064633391
0.00083538642
0.00074709668
0.00085143715
0.0010402263
0.00083801469
0.0010391012
0.00095566508
0.0011471721
0.0012417789
0.00017720228
0.000169696
0.00018774593
0.00021834773
0.00019966786
0.00020071435
0.00025330382
0.00025179493
0.00019954403
0.00020067727
0.00025324823
0.00025151131
0.00019755738
0.00019443799
0.00024432317
0.00024896806
0.00018500934
0.00019031846
0.00023877295
0.00022969066
0.0001846982
0.00018999828
0.0002380547
0.00022904829
0.00019736389
0.00019416624
0.0002436625
0.00024853403
0.00017704968
0.00017009305
0.00018822241
0.00021805424
0.00022078322
0.0001970677
0.00020257902
0.00025238578
0.0001589058
0.00017735546
0.00016474368
0.00020576457
0.072055029
0.070403968
0.017137171
0.077693328
0.1103602
0.042424793
0.045103968
0.00027809724
0.00060463066
0.0091413356
0.0031276463
0.0069194985
0.0033349157
0.010333607
0.028030063
4.1436207e-05
4.0135634e-05
3.6641396e-05
4.1238505e-05
3.7462324e-05
4.1446742e-05
4.1257341e-05
4.0099594e-05
3.9550736e-05
3.9586076e-05
3.8943561e-05
2.1158547e-07
3.5768245e-05
2.3909789e-07
4.1536644e-05
2.3966577e-07
2.3096808e-07
4.0599265e-05
2.3412027e-07
2.3794312e-07
4.0949813e-05
2.3631702e-07
2.1637357e-07
3.8223954e-05
2.2065968e-07
3.8169347e-05
3.4853526e-05
4.1538747e-05
2.391709e-07
2.3968464e-07
4.0972519e-05
2.3806118e-07
2.3642443e-07
4.0568866e-05
2.3146173e-07
2.3409769e-07
3.8923528e-05
2.2826318e-07
2.2473492e-07
9.1592759e-06
1.0346685e-05
1.0371432e-05
1.0349116e-05
1.0371902e-05
1.002251e-05
1.0138392e-05
1.0302021e-05
1.0231435e-05
1.029767e-05
1.0226431e-05
1.0016073e-05
1.0131934e-05
9.3631369e-06
9.5513024e-06
9.8798703e-06
9.7249749e-06
0.00018085239
0.00017921931
0.000261273
0.00030043855
2.4341265e-05
2.434722e-05
2.3490689e-05
2.4241883e-05
2.4231572e-05
2.3562286e-05
2.2029011e-05
2.3257666e-05
0.00029405483
0.00022778076
0.00029423061
0.00022578448
0.00017909213
0.00012027264
0.00018088411
0.0001214959
0.00012151171
0.00030414631
0.00017145666
0.00011106425
0.00011505946
0.00021626855
0.00017604461
0.00012037429
0.0001182002
0.00029791952
0.00028560793
0.00028584223
0.00022782358
0.00026216759
0.0002622117
0.00029231294
0.00028340895
0.00027913636
0.00022189336
0.00025994434
0.00025561947
0.00028356828
2.4401899e-05
2.4402966e-05
2.3836398e-05
2.4054999e-05
2.4057177e-05
2.3845816e-05
2.2489844e-05
2.2878477e-05
8.7638998e-05
8.9097379e-05
8.7684412e-05
8.8489646e-05
8.6789715e-05
0.0042764365
0.00065805774
0.0079254274
0.0068720879
0.0070657161
0.011203782
0.011072466
0.012294691
8.0151828e-05
7.866225e-05
8.0417801e-05
7.7639954e-05
8.9230028e-05
7.719052e-05
2.9750178e-05
2.9212211e-05
3.1291535e-05
0.00030538289
8.2287761e-05
8.2008246e-05
0.0001075155
0.0001068955
2.8450103e-05
3.1044372e-05
2.6755867e-05
2.8915509e-05
8.0044726e-05
7.9898651e-05
7.9424262e-05
2.8519554e-05
3.4520403e-05
3.3277659e-05
3.0369227e-05
3.2650897e-05
3.1644666e-05
7.5611464e-05
7.5190002e-05
7.8790106e-05
7.5314914e-05
7.5853111e-05
8.9672765e-05
7.6248098e-05
8.557594e-05
7.3316236e-05
7.296597e-05
7.5870109e-05
7.9612094e-05
7.5114725e-05
7.3177909e-05
7.7833397e-05
7.3766594e-05
3.2048348e-05
7.1494661e-05
7.1610383e-05
6.7789346e-05
7.1338801e-05
7.1003602e-05
2.9740692e-05
3.0855302e-05
7.1391135e-05
7.1025336e-05
7.1611765e-05
7.168519e-05
6.9351253e-05
6.8631522e-05
6.9939367e-05
7.0490624e-05
2.9775101e-05
3.2769049e-05
3.0887884e-05
3.4046955e-05
3.3010299e-05
3.0460616e-05
3.2573545e-05
3.5592578e-05
8.0469583e-05
9.0173977e-05
8.811797e-05
8.1492353e-05
8.0587907e-05
2.9747909e-05
)


1266
(
5.4836673e-07
0.00014093571
6.1535264e-07
0.00015545525
5.5661913e-07
0.00012725627
6.0265413e-07
0.00011474702
3.4125242e-05
3.0118918e-05
5.917242e-07
0.00017636734
1.8405098e-06
0.00016906852
4.023874e-05
5.030261e-05
9.115073e-05
0.00015295162
1.7224141e-05
7.8052837e-05
0.00011184292
6.8146355e-05
2.4329746e-05
2.6998038e-05
5.0510869e-07
9.3175189e-05
4.5637135e-07
0.00010341286
2.1958224e-05
1.9822603e-05
0.00050427747
0.00049866567
0.00053803841
0.00045511708
0.00060042925
0.00061767039
0.0004908801
0.00054707806
0.00055080269
0.00054484856
0.00038032576
0.00063692237
0.00064644348
0.00043542053
0.00025599586
0.00023292197
0.0002158977
0.00027345373
0.00023071326
0.00015615262
0.00019076596
0.00019708318
6.0012026e-05
6.7676941e-05
9.3992776e-05
7.8406869e-05
0.00011375105
0.00015627502
5.3936957e-05
4.8675719e-05
3.9718171e-05
4.3963195e-05
0.00028903463
0.00024355866
0.00028412059
0.0002489257
0.00028914382
0.00024763984
0.00024998764
0.00028535278
0.00025856027
0.0002169782
0.00022676775
0.00024670462
0.00026934809
0.00024257696
0.0002785008
0.00023543109
0.00010368745
0.00011989159
0.00011363401
0.0001091163
9.8481187e-05
0.00010186299
9.3429908e-05
0.00010764516
0.00020649342
0.00023426914
0.00019589442
0.00017556327
0.00018554786
0.00012164405
0.0001266925
0.00011495781
0.00013479436
0.00012990372
0.00015730194
0.0001396955
0.00014514545
9.594863e-05
0.00010064107
0.00011071317
0.00010550189
9.1365768e-05
8.6883107e-05
0.00011666175
0.00012330663
0.00057886742
0.00048395341
0.0004609828
0.00057981948
0.00021701806
0.0001988088
0.00017042802
0.00020499496
9.3258422e-05
0.00010373341
0.00013247961
0.00013291361
0.00013770356
0.00017376481
0.00011867159
0.0001686034
8.5101456e-05
7.7049476e-05
0.00011176119
0.00012276469
6.3066799e-05
6.9716253e-05
0.00010176556
9.1947766e-05
0.00021043024
0.00021949097
0.00021547273
0.00020578659
0.00023319776
0.00022714683
0.00022195962
0.00022730813
0.00023018662
0.00023654685
0.00022765084
0.00021899363
0.0002371823
0.00023853278
0.00023043078
0.00023018694
0.00012970808
0.00012275042
0.00014055057
0.00014834044
0.00010945826
0.00011599654
0.00013275102
0.00012467392
0.00019898444
0.00018847875
0.00016855647
0.00019462892
0.00013602445
0.00014441333
0.00014932001
0.00015481411
0.0001693891
0.00017949939
0.00015642919
0.000182501
2.5158874e-05
1.7865812e-05
2.4175506e-05
2.0426938e-05
2.1331072e-05
1.416859e-05
1.7058458e-05
1.2442277e-05
9.0361267e-06
8.3220261e-08
5.1958097e-07
3.4669518e-06
3.6761195e-06
7.9793245e-08
1.625243e-05
5.0779831e-08
1.457467e-07
2.615695e-05
9.8233424e-08
1.8694503e-05
1.0754768e-07
1.3998818e-07
2.320752e-05
1.3451359e-07
1.5305457e-05
3.8833151e-08
4.4192848e-08
1.9547117e-05
1.1831672e-07
1.131346e-07
2.2257814e-05
1.2367767e-07
1.2894273e-07
3.3075907e-06
2.5851514e-06
4.5432304e-06
4.1214705e-06
3.8137486e-06
3.4421268e-06
3.5804437e-06
4.4472375e-06
4.6911314e-06
5.1289058e-06
4.9090714e-06
5.3552622e-06
5.5858925e-06
8.1079116e-05
9.0450477e-05
1.0417017e-05
1.2110713e-05
1.2619316e-05
9.7344832e-06
9.751983e-06
6.7734141e-06
0.00010368997
9.7359745e-05
6.4669879e-05
8.9406808e-05
5.349308e-05
5.9271364e-05
0.00010673217
4.6519448e-05
1.0254417e-05
0.00011451488
0.00012244676
0.00013450328
7.0983006e-05
6.5249293e-06
6.372599e-06
1.276016e-05
9.0904958e-06
6.7596943e-06
7.9918367e-06
8.2492111e-06
1.1040967e-05
1.1548526e-05
1.3186333e-05
1.6761865e-05
2.2473394e-05
1.9152924e-05
1.3669279e-05
1.0467114e-05
1.5641307e-05
2.5018398e-05
2.7596813e-05
2.9746832e-05
4.8279919e-07
1.4874477e-05
4.6781924e-08
1.0341578e-05
2.5258911e-06
3.8282769e-06
4.9184e-06
0.031676661
3.638362e-05
6.2173391e-05
6.2182585e-06
2.8904733e-05
4.6679256e-05
2.6919434e-05
7.8508195e-06
8.9336793e-06
3.2451287e-08
2.9690917e-05
2.8185523e-08
3.358539e-05
6.930299e-06
6.139684e-06
3.5864833e-08
4.3409042e-05
3.54668e-08
3.8116436e-05
1.2263368e-05
1.038564e-05
2.3565666e-07
6.8747674e-05
5.8936064e-07
6.3242649e-05
1.4870619e-05
1.9126538e-05
2.4389138e-07
4.9283449e-05
1.4454281e-07
5.5958508e-05
4.4999532e-06
4.1394336e-06
6.7419459e-08
2.6321334e-05
2.2276939e-08
2.3232238e-05
4.9352903e-06
5.4570496e-06
8.9962469e-08
1.7865338e-05
4.5625974e-08
2.0453145e-05
4.0388953e-06
3.9821738e-06
0.00012358554
9.6381665e-05
0.00011771887
0.00015228979
0.00019338893
0.00015580419
0.00013662183
0.00013064633
0.00022555293
1.4896489e-05
1.9481334e-05
1.7226805e-05
1.6799327e-05
1.9791663e-05
2.1364925e-05
1.8415391e-05
2.2936402e-05
0.00017314551
0.00018961663
0.00016751626
1.3648372e-05
1.5322466e-05
1.8070012e-05
1.6792605e-05
1.175184e-05
9.6253149e-06
1.9160314e-05
2.0067368e-05
2.0796097e-05
2.2225013e-05
1.9529075e-05
2.1573994e-05
2.7211257e-05
2.4600629e-05
2.6400065e-05
3.2551731e-05
3.012284e-05
0.00024032973
0.00024116153
0.00010865552
9.3685979e-05
0.00011624215
8.6501327e-05
9.7778069e-05
6.214514e-05
8.3376951e-05
7.6152695e-05
4.5152253e-05
6.5894305e-05
0.00012326167
9.8359208e-05
0.00010093905
0.0001209685
0.00012351506
0.0001012434
0.00010178619
0.000122097
0.00011114295
9.3804403e-05
0.00011561217
9.9573378e-05
9.7019505e-05
0.00011935651
1.8283151e-05
1.6087486e-05
1.2591194e-05
1.4212766e-05
2.0935821e-05
2.4309246e-05
3.5724747e-05
2.8936781e-05
1.2636923e-05
1.1181451e-05
1.4483237e-05
9.981655e-06
8.1297604e-06
8.9548529e-06
1.1179529e-05
9.9745458e-06
7.540096e-06
7.0429361e-06
2.0949417e-05
2.5275822e-05
2.4230801e-05
2.1898874e-05
2.6084446e-05
2.2649462e-05
0.00020969119
0.00020571382
7.314626e-06
3.2681926e-05
3.7346632e-05
4.7820986e-05
4.6811042e-05
8.3872824e-05
7.6410595e-05
6.3802324e-05
7.7204706e-05
5.2440389e-05
6.6433775e-05
4.3878221e-05
6.2600524e-05
2.9030053e-05
2.5637267e-05
3.7393619e-05
4.2156705e-05
2.00881e-05
2.2684208e-05
3.3314089e-05
2.9251169e-05
1.2449506e-05
1.6384039e-05
1.3933758e-05
2.0689953e-05
1.7640591e-05
1.5588604e-05
2.043801e-05
2.5732356e-05
2.9822816e-05
3.6454506e-05
2.8969356e-05
2.7836097e-05
3.4177859e-05
3.5545638e-05
8.9467646e-05
9.2483574e-05
8.6936366e-05
8.3003776e-05
9.3850441e-05
9.3819949e-05
8.8637753e-05
8.9243338e-05
8.8371214e-05
9.2821591e-05
9.0939927e-05
8.7353128e-05
8.87731e-05
0.0025993375
0.0029074048
0.0044912854
0.0033860302
0.007017134
0.0083384777
0.045220877
0.030995881
6.6716328e-06
5.2520671e-05
3.3560004e-05
0.00014941653
5.5274263e-05
6.4102713e-05
0.00015433252
0.00014717232
0.00013917028
0.00011956937
0.00012746452
0.00012983986
0.0001572384
0.0001567806
0.00011190642
0.00011171339
0.00010406139
0.00012069763
9.2391442e-05
0.00011645628
0.00013479325
0.00014845233
0.0001423901
0.00013517131
0.00015735947
0.00015974039
0.0001627559
0.00014816045
0.0001721918
0.00014873344
0.0001537233
0.00016545965
0.00010358661
8.9554795e-05
9.6691769e-05
9.5878207e-05
8.057189e-05
8.1723228e-05
6.9333996e-05
8.8612546e-05
0.00017147201
0.00018298362
0.00010459374
0.00011291511
9.9472138e-05
0.00011928392
0.000109654
0.00012554674
0.00011671481
0.00011598064
0.00010792528
0.00012601654
0.0001264651
0.00014948754
0.00013700408
0.00013719215
8.8942704e-05
0.00010650818
9.4364185e-05
9.9675861e-05
8.6903443e-05
5.7373152e-05
9.9519517e-05
9.5279509e-05
9.1026965e-05
8.2629772e-05
8.6891132e-05
0.00012491109
0.00013336218
0.0001371998
0.00016426879
0.00016531154
0.00014997052
0.00015928815
0.00019546152
0.020854716
0.00030472559
0.00028085486
0.00030899886
0.00030330005
6.9322258e-07
0.00029801243
7.1889808e-07
0.00023003555
8.7692469e-05
7.4563056e-05
4.2629979e-07
0.00068234955
5.78915e-07
0.00055829201
0.00010403361
0.00012535119
1.1992155e-06
0.0003691775
1.5096648e-06
0.00045449433
0.00037971316
7.1785121e-05
0.0012983052
9.4365628e-06
0.0008417835
0.0003459493
0.00030104311
1.8684746e-06
0.0026551165
2.0479595e-06
0.0023857796
0.00038922255
0.00042684786
1.6593167e-06
0.0017790005
1.441672e-06
0.0020836964
0.00021774493
0.00025762887
8.6605791e-07
0.0008342293
7.1615974e-07
0.0010182881
0.00018244978
0.00015149051
1.0375358e-06
0.0014929088
1.2309703e-06
0.00123772
0.00046558013
0.00044707546
2.2345643e-06
0.0028576511
2.176193e-06
0.0029634614
0.00046869508
0.00045457008
2.2066797e-06
0.002832252
2.0559709e-06
0.0029547033
0.00038584909
0.00041765511
7.2158548e-06
0.0016569438
5.2280852e-06
0.0019921884
0.00035197354
0.00032090838
5.3148861e-06
0.0026150169
1.6614191e-06
0.0023201489
5.7743099e-05
6.4056938e-05
0.0014776126
0.0014248619
0.00082934567
0.001997128
0.0037227318
0.0037718419
0.00065739375
0.00096119757
0.00075983132
0.00097742395
0.0013362355
0.0033729311
0.0018868198
0.0013165284
0.0031606243
0.0010006835
0.0001681815
0.00017622153
0.00067699119
0.00073842591
0.00064606621
0.00078079989
0.0012387774
0.00017686005
0.00017858505
0.0010267328
0.002603994
0.0032278839
0.00054292277
0.00067560905
0.00060689125
0.00059778058
0.00030260681
0.00028677809
0.00032550182
0.00026803642
0.0040286051
0.00091438474
0.00084663292
0.00096365714
0.00091716097
0.0012652899
9.3735378e-05
0.00020360369
0.00024782847
0.00023881484
0.00021253931
0.00015241953
0.00012729804
0.00063083961
0.00060656938
0.00067305394
0.00069740319
0.00061312804
0.00077746379
0.00017663961
0.00021027351
0.0002477006
0.00021394336
0.00024149069
0.00052152579
0.0005675751
0.00048747541
0.00047679066
0.00053943063
0.00043458261
0.00034179496
0.00042029921
0.00036989936
0.00038581086
0.0003037243
0.00027064334
0.00021548349
0.00024131093
0.0007320659
0.00065074726
0.00069274195
0.00078634452
0.0024971658
0.00074144011
0.0010050756
0.00085175191
0.0007832088
0.00050276658
0.0005730154
0.00060486322
0.00052688968
0.0006423696
0.00064456879
0.00067466886
0.00055803387
0.00080908074
0.00086450899
0.0009473339
0.0008772745
0.00011277119
0.00011877034
0.0012339736
0.001694949
0.00030099947
0.00034142261
0.00034870731
0.00033757047
0.0005297885
0.00048729632
0.002355271
0.001584601
0.0012476444
0.0017739799
0.0028035046
0.0024089312
0.0012728579
0.0011380324
0.00029409466
0.00028396397
0.00032883753
0.00037492779
0.00029447388
0.00028487373
0.00035991642
0.00037393082
0.00018295822
0.00020014727
0.00024253557
0.0002180058
0.001032398
0.00099191473
0.0010864903
0.00094733986
0.00077604354
0.00086673175
0.00086394883
0.00095954861
0.00044436934
0.00039056791
0.00044864582
0.00046473272
0.00041066941
0.00049436314
0.00048357948
0.00046474137
0.00092573126
0.001041169
0.00082605125
0.00092462439
0.00059780496
0.00070997955
0.00079724886
0.00066896897
0.00018385058
0.0001761511
0.0002161469
0.00015071804
0.00014378559
0.00017128406
0.00024600153
0.00020500004
0.00062955068
0.00059032576
0.0005054825
0.00020515237
0.00019087259
0.00020316315
0.0002189093
0.00023136808
0.00019377221
0.00056937815
0.00065039851
0.00079455528
0.00072777608
0.00049032393
0.00041700947
0.00029466465
0.00035152083
0.00047337176
0.00042616567
0.00034072728
0.00038165557
0.00083465004
0.00086444646
0.00084341656
0.00086760328
0.00078202772
0.00071574725
0.00058054443
0.00064498463
0.00013174096
0.00011458571
0.00012809834
0.00015368555
0.00014882703
0.00013195582
0.00012387144
0.00013779964
0.0001193464
0.00014352444
0.00013831917
0.00015801946
0.00013538772
0.00016173791
0.00014071415
0.00016706138
0.00016477963
0.00014250724
0.00013783352
0.00015666901
0.00014590851
0.00012808439
0.0001572868
0.00014983228
0.00013427129
0.00019293774
0.00017359769
0.0002112198
0.00025312096
0.00023771188
0.00022396032
0.00018815586
0.00017708867
0.00016814166
0.00019880423
0.00014010337
0.00016606904
0.00016378133
0.00014190028
0.00013812756
0.00015952295
0.00013630697
0.0001614919
0.00014404962
0.00016794696
0.00014326434
0.0001690256
0.00014419398
0.00016855048
0.00014367926
0.00016920526
0.0018565291
0.00012212375
0.00010634078
0.00010366288
0.0001114473
0.00010766144
0.00011497149
0.0001181825
0.0001254275
0.00012690486
0.0001234515
0.00012102726
0.00012292708
0.00012103307
0.00012478124
0.00012635491
0.00012828727
0.0001278649
0.00012816462
0.00012750757
0.0019104212
0.0016650348
0.0021974841
0.0014878521
0.00021062971
0.00025913241
0.00025250118
0.00034635167
0.00036133076
0.00030100438
0.00036130522
0.00047513074
0.00025376687
0.00027054553
0.00033918337
0.00031448899
0.00023590732
0.0002178463
0.00026515385
0.00029061822
0.00070336185
0.00060418697
0.00076868296
0.00088813736
0.00043414729
0.00051414612
0.00066639227
0.0005628509
0.00080866855
0.00091501178
0.0011244728
0.001002935
0.0010987653
0.0010146278
0.0012281555
0.0013089373
0.0010591825
0.00096665071
0.001068751
0.0012920701
0.0011254664
0.0011714106
0.0013771451
0.0012073165
0.0011594967
0.0011884956
0.001392137
0.0013635537
0.00014931258
0.00014081087
0.00015370442
0.00018157955
0.00018423099
0.00018897138
0.00023773387
0.00023093838
0.00019577413
0.00019285159
0.00024292
0.00024703657
0.00017873244
0.00017259038
0.0002147764
0.00022364021
0.00015846113
0.00016587248
0.00020590567
0.00019425075
0.00019656073
0.00019824046
0.00025003165
0.00024603252
0.00019768747
0.00019852752
0.00025048076
0.00024955066
0.00019204781
0.00018792154
0.00021028277
0.00023894171
0.00026469817
0.00023218816
0.00023401137
0.00029588105
0.00018176008
0.00020572396
0.00018526301
0.00023430636
0.16981736
0.042769414
0.013035098
0.08373221
0.01458532
0.043026116
0.042438509
6.0637613e-06
5.8232111e-06
0.00031012115
0.034166155
7.3661172e-05
7.0582905e-05
6.6354824e-05
6.7241453e-05
0.0038485148
0.0052968887
0.0024697565
0.008859386
0.02797019
4.0527291e-05
3.7016183e-05
3.3135812e-05
3.8698794e-05
4.0689239e-05
3.9248854e-05
3.2176222e-05
3.3064788e-05
3.9498556e-05
3.8987469e-05