/*--------------------------------*- C++ -*----------------------------------*\
  =========                 |
  \\      /  F ield         | OpenFOAM: The Open Source CFD Toolbox
   \\    /   O peration     | Website:  https://openfoam.org
    \\  /    A nd           | Version:  8
     \\/     M anipulation  |
\*---------------------------------------------------------------------------*/
/*   Windows 32 and 64 bit porting by blueCAPE: http://www.bluecape.com.pt   *\
|  Based on Windows porting (2.0.x v4) by Symscape: http://www.symscape.com   |
\*---------------------------------------------------------------------------*/
FoamFile
{
    version     2.0;
    format      ascii;
    class       labelListList;
    location    "constant/vegetation";
    object      globalFaceFaces;
}
// * * * * * * * * * * * * * * * * * * * * * * * * * * * * * * * * * * * * * //


493
(

1136
(
1110
1111
1112
1113
1115
1116
1130
1131
1132
1133
1134
1135
1136
1137
1138
1139
1140
1141
1142
1143
1153
1468
1470
1475
1476
1480
1483
1517
1518
1540
1541
1574
1575
1576
1577
1578
1579
1580
1581
1582
1583
1584
1585
1586
1587
1590
1610
1611
1612
1613
1614
1615
1616
1617
1618
1619
1620
1621
1622
1623
1624
1625
1666
1668
1694
1695
1696
1697
1698
1699
1700
1701
1702
1703
1704
1705
1706
1707
1708
1709
1710
1711
1712
1713
1797
1802
1803
1838
1839
1840
1841
1844
1847
1858
1859
1860
1861
1862
1863
1864
1865
1866
1867
1868
1869
1880
1883
1890
1891
1892
1893
1894
1895
1896
1897
1898
1899
1900
1901
1902
1903
1904
1905
1932
1935
1960
1961
1962
1963
1964
1965
1966
1967
1968
1969
1970
1971
2089
2090
2091
2092
2093
2094
2095
2096
2097
2098
2099
2100
2101
2102
2103
2104
2108
2109
2110
2112
2114
2115
2116
2117
2118
2119
2120
2121
2122
2123
2124
2125
2126
2127
2128
2129
2130
2131
2132
2133
2134
2135
2136
2137
2138
2139
2140
2145
2146
2147
2148
2152
2153
2155
2156
2158
2159
2160
2164
2165
2166
2168
2170
2171
2172
2184
2185
2187
2188
2189
2190
2195
2196
2197
2198
2199
2200
2201
2202
2203
2204
2205
2206
2207
2271
2316
2317
2318
2319
2341
2342
2344
3082
3083
3084
3085
3086
3087
3088
3089
3090
3091
3092
3093
3094
3095
3096
3097
3098
3099
3100
3101
3102
3103
3104
3105
3106
3107
3108
3109
3110
3111
3112
3113
3114
3115
3116
3117
3118
3119
3120
3121
3122
3123
3124
3125
3126
3127
3129
3133
3134
3135
3136
3137
3140
3141
3142
3143
3144
3145
3146
3147
3148
3149
3154
3155
3156
3157
3158
3159
3160
3161
3164
3165
3166
3167
3169
3170
3171
3172
3173
3178
3179
3180
3181
3182
3183
3184
3185
3186
3187
3188
3189
3190
3191
3192
3193
3194
3195
3196
3197
3198
3199
3200
3201
3202
3203
3204
3205
3206
3207
3208
3209
3210
3211
3212
3213
3214
3215
3216
3217
3218
3219
3220
3221
3222
3223
3224
3225
3226
3227
3228
3229
3230
3231
3233
3234
3235
3238
3240
3241
3242
3243
3244
3246
3247
3276
3277
3278
3295
3296
3297
3298
3299
3300
3301
3302
3303
3304
3305
3306
3307
3308
3309
3310
3311
3312
3313
3314
3315
3316
3317
3318
3319
3320
3321
3322
3323
3324
3325
3326
3327
3328
3329
3330
3343
3346
3363
3364
3365
3366
3367
3368
3369
3370
3371
3372
3373
3374
3375
3376
3377
3378
3380
3393
3449
3451
3452
3453
3454
3455
3456
3536
3537
3538
3539
3540
3541
3542
3543
3548
3549
3550
3551
3554
3555
3556
3557
3558
3559
3560
3561
3562
3563
3564
3565
3566
3567
3572
3573
3574
3575
3578
3579
3580
3581
3712
3713
3759
3760
3761
3762
3763
3764
3774
3775
3776
3777
3784
3785
3786
3787
3788
3789
3790
3791
3793
3795
3864
3866
3867
3871
3872
3945
3946
3947
3948
3949
3950
3951
3952
4028
4029
4030
4031
4032
4033
4034
4035
4036
4037
4038
4039
4040
4041
4042
4043
4044
4045
4046
4047
4048
4049
4050
4051
4052
4053
4054
4055
4056
4057
4058
4059
4060
4061
4062
4063
4064
4065
4066
4067
4068
4069
4070
4071
4072
4073
4074
4075
4076
4077
4078
4079
4080
4081
4082
4083
4084
4085
4086
4087
4088
4089
4090
4091
4092
4093
4094
4095
4096
4097
4098
4099
4100
4101
4102
4103
4104
4105
4106
4107
4108
4109
4110
4111
4112
4113
4114
4115
4116
4117
4118
4119
4120
4121
4122
4123
4124
4125
4126
4127
4128
4129
4130
4131
4132
4133
4134
4135
4136
4137
4138
4139
4140
4141
4142
4143
4144
4145
4146
4147
4148
4149
4150
4151
4152
4153
4154
4155
4156
4157
4158
4159
4160
4161
4162
4163
4164
4165
4166
4167
4168
4169
4170
4171
4172
4173
4174
4175
4176
4177
4178
4179
4180
4181
4182
4183
4184
4185
4186
4187
4188
4189
4190
4191
4192
4193
4194
4195
4196
4197
4198
4199
4200
4201
4202
4203
4204
4205
4206
4207
4208
4209
4210
4211
4212
4213
4214
4215
4216
4217
4218
4219
4220
4221
4222
4223
4224
4225
4226
4227
4228
4229
4230
4231
4232
4233
4234
4235
4236
4237
4238
4239
4240
4241
4242
4243
4244
4245
4246
4247
4248
4249
4250
4251
4252
4253
4254
4255
4256
4257
4258
4259
4260
4261
4262
4263
4264
4265
4266
4267
4268
4269
4270
4271
4272
4273
4274
4275
4276
4277
4278
4279
4280
4281
4282
4283
4284
4285
4286
4287
4288
4289
4290
4291
4292
4293
4294
4295
4296
4297
4298
4299
4300
4301
4302
4303
4304
4305
4306
4307
4308
4309
4310
4311
4312
4313
4314
4315
4316
4317
4318
4319
4320
4321
4322
4323
4324
4325
4326
4327
4328
4329
4330
4331
4332
4333
4334
4335
4336
4337
4338
4339
4340
4341
4342
4343
4344
4345
4346
4347
4348
4349
4350
4351
4352
4353
4354
4355
4356
4357
4358
4359
4360
4361
4362
4363
4364
4365
4366
4367
4368
4369
4370
4371
4372
4373
4374
4375
4376
4377
4378
4379
4380
4381
4382
4383
4384
4385
4386
4387
4388
4389
4390
4391
4392
4393
4394
4395
4396
4397
4398
4399
4400
4401
4402
4403
4404
4405
4406
4407
4408
4409
4410
4411
4412
4413
4414
4415
4416
4417
4418
4419
4420
4421
4422
4423
4424
4425
4426
4427
4428
4429
4430
4431
4432
4433
4434
4435
4436
4437
4438
4439
4440
4441
4442
4443
4444
4445
4446
4447
4448
4450
4452
4455
4457
4460
4461
4516
4523
4524
4528
4535
4713
4714
4715
4799
4800
4801
4803
4804
4805
4808
4809
4812
4813
4816
4822
4827
4828
4833
4834
4835
4836
4837
4838
4839
4840
4841
4842
4843
4844
4845
4851
4860
4861
4862
4863
4864
4865
4866
4867
4868
4869
4870
4871
4882
4892
4893
4894
4895
4896
4897
4898
4899
4900
4901
4902
4903
4904
4905
4906
4907
4911
4915
4916
4917
4927
4928
4929
4930
4935
4936
4937
4938
4945
4946
4949
4950
4958
4960
4961
4962
4963
4970
4973
4974
4975
4985
5007
5008
5009
5015
5016
5017
5018
5019
5020
5021
5022
5023
5024
5025
5026
5041
5060
5061
5062
5063
5064
5065
5066
5067
5069
5070
5071
5072
5073
5076
5078
5088
5089
5090
5091
6203
6204
6316
6317
6318
6320
6321
6322
6340
6342
6344
6395
6396
6397
6404
6405
6499
6501
6890
6891
6893
6894
6895
6906
6909
6910
6911
6912
6913
6915
6917
6918
6919
6920
6921
6922
6938
6939
6940
6941
6942
6943
6944
6945
6946
7022
7024
7025
7034
7036
7037
7100
7101
7115
7116
7117
7118
7132
7133
7137
7138
7169
7170
7171
7172
7174
7175
7176
7177
7178
7179
7180
7190
7191
7194
)


1266
(
1110
1111
1112
1113
1114
1115
1116
1117
1130
1131
1132
1133
1134
1135
1136
1137
1138
1139
1140
1141
1142
1143
1152
1153
1154
1155
1156
1157
1158
1159
1426
1427
1468
1470
1475
1476
1480
1483
1517
1518
1526
1540
1541
1561
1574
1575
1576
1577
1578
1579
1580
1581
1582
1583
1584
1585
1586
1587
1590
1591
1592
1593
1610
1611
1612
1613
1614
1615
1616
1617
1618
1619
1620
1621
1622
1623
1624
1625
1665
1666
1667
1668
1669
1670
1671
1672
1699
1700
1701
1703
1705
1706
1707
1708
1709
1710
1711
1712
1713
1796
1797
1802
1803
1825
1826
1840
1841
1844
1845
1846
1847
1858
1859
1860
1861
1862
1863
1864
1865
1866
1867
1868
1869
1880
1881
1882
1883
1884
1885
1886
1887
1890
1891
1892
1893
1894
1895
1896
1897
1898
1899
1900
1901
1902
1903
1904
1905
1932
1933
1934
1935
1936
1937
1938
1939
1960
1961
1962
1963
1964
1965
1966
1967
1968
1969
1970
1971
2089
2090
2091
2092
2093
2094
2095
2096
2097
2098
2099
2100
2101
2102
2103
2104
2105
2106
2108
2109
2110
2111
2112
2113
2114
2115
2116
2117
2118
2119
2120
2121
2122
2123
2124
2125
2126
2127
2128
2129
2130
2131
2132
2133
2134
2135
2136
2137
2138
2139
2140
2145
2146
2147
2148
2149
2150
2151
2152
2153
2156
2159
2160
2161
2162
2163
2164
2165
2166
2170
2171
2184
2187
2188
2189
2190
2191
2195
2196
2197
2198
2199
2200
2203
2204
2207
2316
2317
2318
2319
2341
2342
2344
3081
3082
3083
3084
3085
3086
3087
3088
3089
3090
3091
3092
3093
3094
3095
3096
3097
3098
3099
3100
3101
3102
3103
3104
3105
3106
3107
3108
3109
3110
3111
3112
3113
3114
3115
3116
3117
3118
3119
3120
3121
3122
3123
3124
3125
3126
3127
3129
3133
3134
3135
3136
3137
3140
3142
3143
3144
3145
3146
3147
3148
3149
3154
3156
3157
3158
3159
3160
3161
3164
3165
3166
3167
3169
3170
3171
3172
3173
3178
3179
3180
3181
3182
3183
3184
3185
3186
3187
3188
3189
3190
3191
3192
3193
3194
3195
3196
3197
3198
3199
3200
3201
3202
3204
3206
3207
3208
3209
3210
3211
3212
3213
3214
3215
3216
3217
3218
3219
3220
3221
3222
3223
3224
3225
3226
3227
3228
3229
3230
3231
3233
3234
3276
3277
3278
3295
3296
3297
3298
3299
3300
3301
3302
3303
3304
3305
3306
3307
3308
3309
3310
3311
3312
3313
3314
3315
3316
3317
3318
3319
3320
3321
3322
3323
3326
3327
3328
3329
3330
3363
3364
3365
3366
3367
3368
3369
3370
3372
3375
3376
3377
3378
3380
3384
3385
3388
3389
3390
3393
3449
3451
3452
3453
3454
3455
3456
3536
3537
3538
3539
3540
3541
3542
3543
3548
3549
3550
3551
3554
3555
3556
3557
3558
3559
3560
3561
3562
3563
3564
3565
3566
3567
3572
3573
3574
3575
3578
3579
3580
3581
3712
3713
3759
3760
3761
3762
3763
3764
3774
3775
3776
3777
3784
3785
3786
3787
3788
3789
3790
3791
3793
3795
3864
3866
3867
3871
3872
3945
3946
3947
3948
3949
3950
3951
3952
4028
4029
4030
4031
4032
4033
4034
4035
4036
4037
4038
4039
4040
4041
4042
4043
4044
4045
4046
4047
4048
4049
4050
4051
4052
4053
4054
4055
4056
4057
4058
4059
4060
4061
4062
4063
4064
4065
4066
4067
4068
4069
4070
4071
4072
4073
4074
4075
4076
4077
4078
4079
4080
4081
4082
4083
4084
4085
4086
4087
4088
4089
4090
4091
4092
4093
4094
4095
4096
4097
4098
4099
4100
4101
4102
4103
4104
4105
4106
4107
4108
4109
4110
4111
4112
4113
4114
4115
4116
4117
4118
4119
4120
4121
4122
4123
4124
4125
4126
4127
4128
4129
4130
4131
4132
4133
4134
4135
4136
4137
4138
4139
4140
4141
4142
4143
4144
4145
4146
4147
4148
4149
4150
4151
4152
4153
4154
4155
4156
4157
4158
4159
4160
4161
4162
4163
4164
4165
4166
4167
4168
4169
4170
4171
4172
4173
4174
4175
4176
4177
4178
4179
4180
4181
4182
4183
4184
4185
4186
4187
4188
4189
4190
4191
4192
4193
4194
4195
4196
4197
4198
4199
4200
4201
4202
4203
4204
4205
4206
4207
4208
4209
4210
4211
4212
4213
4214
4215
4216
4217
4218
4219
4220
4221
4222
4223
4224
4225
4226
4227
4228
4229
4230
4231
4232
4233
4234
4235
4236
4237
4238
4239
4240
4241
4242
4243
4244
4245
4246
4247
4248
4249
4250
4251
4252
4253
4254
4255
4256
4257
4258
4259
4260
4261
4262
4263
4264
4265
4266
4267
4268
4269
4270
4271
4272
4273
4274
4275
4276
4277
4278
4279
4280
4281
4282
4283
4284
4285
4286
4287
4288
4289
4290
4291
4292
4293
4294
4295
4296
4297
4298
4299
4300
4301
4302
4303
4304
4305
4306
4307
4308
4309
4310
4311
4312
4313
4314
4315
4316
4317
4318
4319
4320
4321
4322
4323
4324
4325
4326
4327
4328
4329
4330
4331
4332
4333
4334
4335
4336
4337
4338
4339
4340
4341
4342
4343
4344
4345
4346
4347
4348
4349
4350
4351
4352
4353
4354
4355
4356
4357
4358
4359
4360
4361
4362
4363
4364
4365
4366
4367
4368
4369
4370
4371
4372
4373
4374
4375
4376
4377
4378
4379
4380
4381
4382
4383
4384
4385
4386
4387
4388
4389
4390
4391
4392
4393
4394
4395
4396
4397
4398
4399
4400
4401
4402
4403
4404
4405
4406
4407
4408
4409
4410
4411
4412
4413
4414
4415
4416
4417
4418
4419
4420
4421
4422
4423
4424
4425
4426
4427
4428
4429
4430
4431
4432
4433
4434
4435
4436
4437
4438
4439
4440
4441
4442
4443
4444
4445
4446
4447
4448
4450
4452
4455
4457
4458
4460
4461
4519
4520
4523
4596
4682
4683
4686
4687
4711
4713
4714
4715
4799
4800
4801
4802
4803
4804
4805
4806
4807
4808
4809
4810
4811
4812
4813
4816
4817
4821
4822
4823
4824
4825
4826
4827
4828
4829
4830
4832
4833
4834
4835
4836
4837
4838
4839
4840
4841
4842
4843
4844
4845
4848
4849
4850
4851
4852
4853
4857
4860
4861
4862
4863
4864
4865
4866
4867
4868
4869
4870
4871
4874
4875
4878
4879
4880
4881
4882
4883
4884
4885
4886
4887
4892
4893
4894
4895
4896
4897
4898
4899
4900
4901
4902
4903
4904
4905
4906
4907
4910
4911
4912
4913
4914
4915
4916
4917
4918
4919
4921
4925
4927
4928
4929
4930
4931
4932
4933
4934
4935
4936
4937
4938
4939
4943
4945
4946
4948
4949
4950
4951
4958
4959
4960
4961
4962
4963
4964
4965
4966
4967
4968
4969
4970
4971
4973
4974
4975
4976
4977
4979
4981
4983
4984
4985
4986
4987
4988
4989
4990
4991
4992
4993
4994
4995
4996
4997
4998
4999
5000
5001
5002
5004
5007
5008
5009
5015
5016
5017
5018
5019
5020
5021
5022
5023
5024
5025
5026
5035
5036
5037
5038
5040
5041
5042
5052
5053
5054
5055
5056
5060
5061
5062
5063
5064
5065
5066
5067
5068
5069
5070
5071
5072
5073
5074
5076
5078
5088
5089
5090
5091
5128
6203
6316
6317
6318
6319
6320
6321
6322
6323
6324
6326
6395
6396
6397
6398
6400
6401
6402
6403
6586
6893
6894
6895
6914
6915
6916
6917
6918
6919
6920
6921
6922
6923
6924
6925
6926
6927
6928
6931
6932
6933
6934
6935
6936
6937
6938
6939
6940
6941
6942
6943
6944
6945
6946
7024
7025
7027
7028
7031
7033
7034
7036
7037
7115
7116
7117
7118
7122
7123
7127
7128
7132
7133
7137
7138
7178
7179
7180
7181
7182
7183
7184
7185
7186
7187
7188
7189
7190
7191
7192
)


996
(
2090
2091
2092
2093
2094
2095
2096
2097
2098
2099
2100
2101
2102
2103
2104
2108
2109
2110
2112
2114
2115
2116
2117
2118
2119
2120
2121
2123
2124
2125
2126
2127
2128
2129
2130
2131
2132
2133
2134
2136
2137
2138
2139
2145
2146
2147
2152
2153
2155
2156
2158
2159
2160
2164
2165
2166
2168
2170
2171
2184
2187
2188
2189
2190
2195
2196
2197
2198
2199
2200
2203
2204
2206
2207
2229
2270
2316
2317
2318
2319
2341
2342
2344
2685
2686
2697
2698
2865
2866
2867
2868
2869
2870
2871
2872
2906
2908
2909
3081
3082
3083
3084
3086
3087
3088
3089
3090
3091
3092
3093
3094
3095
3096
3097
3098
3099
3100
3101
3102
3103
3104
3105
3106
3107
3108
3109
3110
3111
3112
3113
3114
3115
3116
3117
3118
3119
3120
3121
3122
3123
3124
3125
3126
3127
3128
3129
3130
3131
3132
3133
3134
3135
3136
3137
3138
3139
3140
3141
3142
3143
3144
3145
3146
3147
3148
3149
3150
3151
3152
3153
3154
3155
3156
3157
3158
3159
3160
3161
3162
3163
3164
3165
3166
3167
3168
3169
3170
3171
3172
3173
3174
3175
3176
3177
3178
3179
3180
3181
3182
3183
3184
3185
3186
3187
3188
3189
3190
3191
3192
3193
3194
3195
3196
3197
3198
3199
3200
3201
3202
3203
3204
3205
3206
3207
3208
3209
3210
3211
3212
3213
3214
3215
3216
3217
3218
3219
3220
3221
3222
3223
3224
3225
3226
3227
3228
3229
3230
3231
3232
3233
3234
3235
3236
3237
3238
3239
3240
3241
3242
3243
3244
3245
3246
3247
3248
3249
3250
3251
3252
3253
3254
3255
3256
3257
3258
3259
3260
3261
3262
3263
3264
3265
3266
3267
3268
3269
3270
3271
3272
3273
3274
3275
3276
3277
3278
3279
3280
3281
3282
3283
3284
3285
3286
3287
3288
3289
3290
3291
3292
3293
3294
3295
3296
3297
3298
3299
3300
3301
3302
3303
3304
3305
3306
3307
3308
3309
3310
3311
3312
3313
3314
3315
3316
3317
3318
3319
3320
3321
3322
3323
3324
3325
3326
3327
3328
3329
3330
3331
3332
3333
3334
3335
3336
3337
3338
3339
3340
3341
3342
3343
3344
3345
3346
3347
3348
3349
3350
3351
3352
3353
3354
3355
3356
3357
3358
3359
3360
3361
3362
3363
3364
3365
3366
3367
3368
3369
3370
3371
3372
3373
3374
3375
3376
3377
3378
3380
3384
3385
3394
3448
3449
3450
3451
3452
3453
3454
3455
3456
3536
3537
3538
3539
3540
3541
3542
3543
3548
3549
3550
3551
3554
3555
3556
3557
3558
3559
3560
3561
3562
3563
3564
3565
3566
3567
3572
3573
3574
3575
3578
3579
3580
3581
3712
3713
3759
3760
3761
3762
3763
3764
3774
3775
3776
3777
3784
3785
3786
3787
3788
3789
3790
3791
3793
3795
3864
3866
3867
3871
3872
3945
3946
3947
3948
3949
3950
3951
3952
3963
4028
4029
4031
4032
4033
4034
4035
4036
4037
4038
4039
4040
4041
4042
4043
4044
4045
4046
4047
4048
4049
4050
4051
4052
4053
4054
4055
4056
4057
4058
4059
4060
4061
4062
4063
4064
4065
4066
4067
4068
4069
4070
4071
4072
4073
4074
4075
4076
4077
4078
4079
4080
4081
4082
4083
4084
4085
4086
4087
4088
4089
4090
4091
4092
4093
4094
4095
4096
4097
4098
4099
4100
4101
4102
4103
4104
4105
4106
4107
4108
4109
4110
4111
4112
4113
4114
4115
4116
4117
4118
4119
4120
4121
4122
4123
4124
4125
4126
4127
4128
4129
4130
4131
4132
4133
4134
4135
4136
4137
4138
4139
4140
4141
4142
4143
4144
4145
4146
4147
4148
4149
4150
4151
4152
4153
4154
4155
4156
4157
4158
4159
4160
4161
4162
4163
4164
4165
4166
4167
4168
4169
4170
4171
4172
4173
4174
4175
4176
4177
4178
4179
4180
4181
4182
4183
4184
4185
4186
4187
4188
4189
4190
4191
4192
4193
4194
4195
4196
4197
4198
4199
4200
4201
4202
4203
4204
4205
4206
4207
4208
4209
4210
4211
4212
4213
4214
4215
4216
4217
4218
4219
4220
4221
4222
4223
4224
4225
4226
4227
4228
4229
4230
4231
4232
4233
4234
4235
4236
4237
4238
4239
4240
4241
4242
4243
4244
4245
4246
4247
4248
4249
4250
4251
4252
4253
4254
4255
4256
4257
4258
4259
4260
4261
4262
4263
4264
4265
4266
4267
4268
4269
4270
4271
4272
4273
4274
4275
4276
4277
4278
4279
4280
4281
4282
4283
4284
4285
4286
4287
4288
4289
4290
4291
4292
4293
4294
4295
4296
4297
4298
4299
4300
4301
4302
4303
4304
4305
4306
4307
4308
4309
4310
4311
4312
4313
4314
4315
4316
4317
4318
4319
4320
4321
4322
4323
4324
4325
4326
4327
4328
4329
4330
4331
4332
4333
4334
4335
4336
4337
4338
4339
4340
4341
4342
4343
4344
4345
4346
4347
4348
4349
4350
4351
4352
4353
4354
4355
4356
4357
4358
4359
4360
4361
4362
4363
4364
4365
4366
4367
4368
4369
4370
4371
4372
4373
4374
4375
4376
4377
4378
4379
4380
4381
4382
4383
4384
4385
4386
4387
4388
4389
4390
4391
4392
4393
4394
4395
4396
4397
4398
4399
4400
4401
4402
4403
4404
4405
4406
4407
4408
4409
4410
4411
4412
4413
4414
4415
4416
4417
4418
4419
4420
4421
4422
4423
4424
4425
4426
4427
4428
4429
4430
4431
4432
4433
4434
4435
4436
4437
4438
4439
4440
4441
4442
4443
4444
4445
4446
4447
4448
4450
4451
4452
4453
4455
4456
4457
4459
4515
4516
4523
4528
4529
4539
4800
4803
4804
4805
4808
4809
4811
4812
4813
4827
4828
4829
4833
4834
4835
4837
4839
4840
4841
4842
4843
4844
4851
4860
4861
4862
4863
4864
4866
4867
4868
4869
4870
4871
4882
4883
4892
4893
4894
4895
4898
4900
4901
4902
4903
4904
4905
4906
4907
4914
4915
4927
4928
4930
4933
4935
4936
4937
4938
4962
4963
4973
4974
4975
4985
4987
4990
5007
5008
5009
5024
5026
5060
5061
5064
5065
5066
5067
5076
5089
5090
6204
6205
6404
)


1141
(
1110
1111
1112
1113
1114
1115
1116
1117
1130
1131
1132
1133
1134
1135
1136
1137
1138
1139
1140
1141
1142
1143
1152
1153
1154
1155
1156
1157
1158
1159
1162
1163
1164
1165
1166
1167
1425
1426
1427
1428
1468
1470
1475
1476
1480
1483
1517
1518
1525
1526
1540
1541
1561
1562
1574
1575
1576
1577
1578
1579
1580
1581
1582
1583
1584
1585
1586
1587
1590
1591
1592
1593
1596
1597
1610
1611
1612
1613
1614
1615
1616
1617
1618
1619
1620
1621
1622
1623
1624
1625
1661
1662
1663
1664
1665
1666
1667
1668
1669
1670
1671
1672
1694
1695
1696
1697
1698
1699
1700
1701
1702
1703
1704
1705
1706
1707
1708
1709
1710
1711
1712
1713
1796
1797
1802
1803
1823
1824
1825
1826
1838
1839
1840
1841
1842
1844
1845
1846
1847
1848
1858
1859
1860
1861
1862
1863
1864
1865
1866
1867
1868
1869
1876
1877
1878
1879
1880
1881
1882
1883
1884
1885
1886
1887
1890
1891
1892
1893
1894
1895
1896
1897
1898
1899
1900
1901
1902
1903
1904
1905
1932
1933
1934
1935
1936
1937
1938
1939
1944
1945
1946
1947
1960
1961
1962
1963
1964
1965
1966
1967
1968
1969
1970
1971
2094
2095
2096
2097
2103
2114
2123
2217
2229
2270
2316
2317
2318
2319
2341
2342
2344
2685
2686
2697
2698
2865
2866
2867
2868
2869
2870
2871
2872
2906
2908
2909
3082
3083
3084
3085
3086
3087
3088
3089
3090
3091
3092
3093
3094
3095
3096
3097
3098
3099
3100
3101
3102
3103
3104
3105
3106
3107
3108
3109
3110
3111
3112
3113
3114
3115
3116
3117
3118
3119
3120
3121
3122
3123
3124
3125
3126
3127
3128
3129
3130
3131
3132
3133
3134
3135
3136
3137
3138
3139
3140
3141
3142
3143
3144
3145
3146
3147
3148
3149
3150
3151
3152
3153
3154
3155
3156
3157
3158
3159
3160
3161
3162
3163
3164
3165
3166
3167
3168
3169
3170
3171
3172
3173
3174
3175
3176
3177
3178
3179
3180
3181
3182
3183
3184
3185
3186
3187
3188
3189
3190
3191
3192
3193
3194
3195
3196
3197
3198
3199
3200
3201
3202
3203
3204
3205
3206
3207
3208
3209
3210
3211
3212
3213
3214
3215
3216
3217
3218
3219
3220
3221
3222
3223
3224
3225
3226
3227
3228
3229
3230
3231
3232
3233
3234
3235
3236
3237
3238
3239
3240
3241
3242
3243
3244
3245
3246
3247
3248
3249
3250
3251
3252
3253
3254
3255
3256
3257
3258
3259
3260
3261
3262
3263
3264
3265
3266
3267
3268
3269
3270
3271
3272
3273
3274
3275
3276
3277
3278
3279
3280
3281
3282
3283
3284
3285
3286
3287
3288
3289
3290
3291
3292
3293
3294
3295
3296
3297
3298
3299
3300
3301
3302
3303
3304
3305
3306
3307
3308
3309
3310
3311
3312
3313
3314
3315
3316
3317
3318
3319
3320
3321
3322
3323
3324
3325
3326
3327
3328
3329
3330
3331
3332
3333
3334
3335
3336
3337
3338
3339
3340
3341
3342
3343
3344
3345
3346
3347
3348
3349
3350
3351
3352
3353
3354
3355
3356
3357
3358
3359
3360
3361
3362
3363
3364
3365
3366
3367
3368
3369
3370
3371
3372
3373
3374
3375
3376
3377
3378
3380
3384
3385
3389
3390
3448
3449
3450
3451
3452
3453
3454
3455
3456
3536
3537
3538
3539
3540
3541
3542
3543
3548
3549
3550
3551
3554
3555
3556
3557
3558
3559
3560
3561
3562
3563
3564
3565
3566
3567
3572
3573
3574
3575
3578
3579
3580
3581
3712
3713
3759
3760
3761
3762
3763
3764
3774
3775
3776
3777
3784
3785
3786
3787
3788
3789
3790
3791
3793
3795
3864
3866
3867
3871
3872
3945
3946
3947
3948
3949
3950
3951
3952
4028
4029
4030
4031
4032
4033
4034
4035
4036
4037
4038
4039
4040
4041
4042
4043
4044
4045
4046
4047
4048
4049
4050
4051
4052
4053
4054
4055
4056
4057
4058
4059
4060
4061
4062
4063
4064
4065
4066
4067
4068
4069
4070
4071
4072
4073
4074
4075
4076
4077
4078
4079
4080
4081
4082
4083
4084
4085
4086
4087
4088
4089
4090
4091
4092
4093
4094
4095
4096
4097
4098
4099
4100
4101
4102
4103
4104
4105
4106
4107
4108
4109
4110
4111
4112
4113
4114
4115
4116
4117
4118
4119
4120
4121
4122
4123
4124
4125
4126
4127
4128
4129
4130
4131
4132
4133
4134
4135
4136
4137
4138
4139
4140
4141
4142
4143
4144
4145
4146
4147
4148
4149
4150
4151
4152
4153
4154
4155
4156
4157
4158
4159
4160
4161
4162
4163
4164
4165
4166
4167
4168
4169
4170
4171
4172
4173
4174
4175
4176
4177
4178
4179
4180
4181
4182
4183
4184
4185
4186
4187
4188
4189
4190
4191
4192
4193
4194
4195
4196
4197
4198
4199
4200
4201
4202
4203
4204
4205
4206
4207
4208
4209
4210
4211
4212
4213
4214
4215
4216
4217
4218
4219
4220
4221
4222
4223
4224
4225
4226
4227
4228
4229
4230
4231
4232
4233
4234
4235
4236
4237
4238
4239
4240
4241
4242
4243
4244
4245
4246
4247
4248
4249
4250
4251
4252
4253
4254
4255
4256
4257
4258
4259
4260
4261
4262
4263
4264
4265
4266
4267
4268
4269
4270
4271
4272
4273
4274
4275
4276
4277
4278
4279
4280
4281
4282
4283
4284
4285
4286
4287
4288
4289
4290
4291
4292
4293
4294
4295
4296
4297
4298
4299
4300
4301
4302
4303
4304
4305
4306
4307
4308
4309
4310
4311
4312
4313
4314
4315
4316
4317
4318
4319
4320
4321
4322
4323
4324
4325
4326
4327
4328
4329
4330
4331
4332
4333
4334
4335
4336
4337
4338
4339
4340
4341
4342
4343
4344
4345
4346
4347
4348
4349
4350
4351
4352
4353
4354
4355
4356
4357
4358
4359
4360
4361
4362
4363
4364
4365
4366
4367
4368
4369
4370
4371
4372
4373
4374
4375
4376
4377
4378
4379
4380
4381
4382
4383
4384
4385
4386
4387
4388
4389
4390
4391
4392
4393
4394
4395
4396
4397
4398
4399
4400
4401
4402
4403
4404
4405
4406
4407
4408
4409
4410
4411
4412
4413
4414
4415
4416
4417
4418
4419
4420
4421
4422
4423
4424
4425
4426
4427
4428
4429
4430
4431
4432
4433
4434
4435
4436
4437
4438
4439
4440
4441
4442
4443
4444
4445
4446
4447
4448
4450
4451
4452
4453
4455
4456
4458
4460
4461
4523
4596
4597
4711
4713
4714
4715
4800
4801
4804
4807
4808
4809
4812
4813
4816
4817
4818
4821
4822
4823
4833
4834
4835
4836
4837
4838
4839
4840
4841
4843
4845
4847
4860
4861
4862
4863
4864
4865
4866
4867
4868
4869
4874
4875
4877
4892
4893
4894
4895
4896
4897
4898
4899
4900
4901
4902
4903
4910
4911
4915
4925
4927
4928
4929
4930
4935
4936
4944
4953
4958
4959
4960
4961
4962
4963
4979
4980
4981
4982
5008
5018
5050
5051
5060
5061
5062
5063
5064
5065
5076
5078
5087
5088
5129
)


1095
(
1138
1139
1140
1141
1142
1143
1574
1575
1576
1577
1578
1579
1580
1581
1586
1587
1610
1611
1612
1613
1614
1615
1616
1617
1618
1619
1620
1621
1622
1623
1624
1625
1694
1695
1696
1697
1698
1699
1700
1701
1702
1703
1704
1705
1838
1839
2089
2090
2091
2092
2093
2094
2095
2096
2097
2102
2103
2104
2106
2108
2109
2110
2111
2112
2113
2114
2115
2116
2117
2118
2119
2120
2121
2122
2123
2124
2126
2127
2129
2130
2131
2132
2133
2134
2135
2138
2139
2140
2146
2149
2150
2153
2189
2190
2191
2229
2270
2316
2317
2318
2319
2341
2342
2344
2685
2686
2697
2698
2865
2866
2867
2868
2869
2870
2871
2872
2906
2908
2909
3082
3083
3084
3085
3086
3087
3088
3089
3090
3091
3092
3093
3094
3095
3096
3097
3098
3099
3100
3101
3102
3103
3104
3105
3106
3107
3108
3109
3110
3111
3112
3113
3114
3115
3116
3117
3118
3119
3120
3121
3122
3123
3124
3125
3126
3127
3128
3129
3130
3131
3132
3133
3134
3135
3136
3137
3138
3139
3140
3141
3142
3143
3144
3145
3146
3147
3148
3149
3150
3151
3152
3153
3154
3155
3156
3157
3158
3159
3160
3161
3162
3163
3164
3165
3166
3167
3168
3169
3170
3171
3172
3173
3174
3175
3176
3177
3178
3179
3180
3181
3182
3183
3184
3185
3186
3187
3188
3189
3190
3191
3192
3193
3194
3195
3196
3197
3198
3199
3200
3201
3202
3203
3204
3205
3206
3207
3208
3209
3210
3211
3212
3213
3214
3215
3216
3217
3218
3219
3220
3221
3222
3223
3224
3225
3226
3227
3228
3229
3230
3231
3232
3233
3234
3235
3236
3237
3238
3239
3240
3241
3242
3243
3244
3245
3246
3247
3248
3249
3250
3251
3252
3253
3254
3255
3256
3257
3258
3259
3260
3261
3262
3263
3264
3265
3266
3267
3268
3269
3270
3271
3272
3273
3274
3275
3276
3277
3278
3279
3280
3281
3282
3283
3284
3285
3286
3287
3288
3289
3290
3291
3292
3293
3294
3295
3296
3297
3298
3299
3300
3301
3302
3303
3304
3305
3306
3307
3308
3309
3310
3311
3312
3313
3314
3315
3316
3317
3318
3319
3320
3321
3322
3323
3324
3325
3326
3327
3328
3329
3330
3331
3332
3333
3334
3335
3336
3337
3338
3339
3340
3341
3342
3343
3344
3345
3346
3347
3348
3349
3350
3351
3352
3353
3354
3355
3356
3357
3358
3359
3360
3361
3362
3363
3364
3365
3366
3367
3368
3369
3370
3371
3372
3373
3374
3375
3376
3377
3378
3380
3384
3385
3448
3449
3450
3451
3452
3453
3454
3455
3456
3536
3537
3538
3539
3540
3541
3542
3543
3548
3549
3550
3551
3554
3555
3556
3557
3558
3559
3560
3561
3562
3563
3564
3565
3566
3567
3572
3573
3574
3575
3578
3579
3580
3581
3712
3713
3759
3760
3761
3762
3763
3764
3774
3775
3776
3777
3784
3785
3786
3787
3788
3789
3790
3791
3793
3795
3864
3866
3867
3871
3872
3945
3946
3947
3948
3949
3950
3951
3952
4028
4029
4030
4031
4032
4033
4034
4035
4036
4037
4038
4039
4040
4041
4042
4043
4044
4045
4046
4047
4048
4049
4050
4051
4052
4053
4054
4055
4056
4057
4058
4059
4060
4061
4062
4063
4064
4065
4066
4067
4068
4069
4070
4071
4072
4073
4074
4075
4076
4077
4078
4079
4080
4081
4082
4083
4084
4085
4086
4087
4088
4089
4090
4091
4092
4093
4094
4095
4096
4097
4098
4099
4100
4101
4102
4103
4104
4105
4106
4107
4108
4109
4110
4111
4112
4113
4114
4115
4116
4117
4118
4119
4120
4121
4122
4123
4124
4125
4126
4127
4128
4129
4130
4131
4132
4133
4134
4135
4136
4137
4138
4139
4140
4141
4142
4143
4144
4145
4146
4147
4148
4149
4150
4151
4152
4153
4154
4155
4156
4157
4158
4159
4160
4161
4162
4163
4164
4165
4166
4167
4168
4169
4170
4171
4172
4173
4174
4175
4176
4177
4178
4179
4180
4181
4182
4183
4184
4185
4186
4187
4188
4189
4190
4191
4192
4193
4194
4195
4196
4197
4198
4199
4200
4201
4202
4203
4204
4205
4206
4207
4208
4209
4210
4211
4212
4213
4214
4215
4216
4217
4218
4219
4220
4221
4222
4223
4224
4225
4226
4227
4228
4229
4230
4231
4232
4233
4234
4235
4236
4237
4238
4239
4240
4241
4242
4243
4244
4245
4246
4247
4248
4249
4250
4251
4252
4253
4254
4255
4256
4257
4258
4259
4260
4261
4262
4263
4264
4265
4266
4267
4268
4269
4270
4271
4272
4273
4274
4275
4276
4277
4278
4279
4280
4281
4282
4283
4284
4285
4286
4287
4288
4289
4290
4291
4292
4293
4294
4295
4296
4297
4298
4299
4300
4301
4302
4303
4304
4305
4306
4307
4308
4309
4310
4311
4312
4313
4314
4315
4316
4317
4318
4319
4320
4321
4322
4323
4324
4325
4326
4327
4328
4329
4330
4331
4332
4333
4334
4335
4336
4337
4338
4339
4340
4341
4342
4343
4344
4345
4346
4347
4348
4349
4350
4351
4352
4353
4354
4355
4356
4357
4358
4359
4360
4361
4362
4363
4364
4365
4366
4367
4368
4369
4370
4371
4372
4373
4374
4375
4376
4377
4378
4379
4380
4381
4382
4383
4384
4385
4386
4387
4388
4389
4390
4391
4392
4393
4394
4395
4396
4397
4398
4399
4400
4401
4402
4403
4404
4405
4406
4407
4408
4409
4410
4411
4412
4413
4414
4415
4416
4417
4418
4419
4420
4421
4422
4423
4424
4425
4426
4427
4428
4429
4430
4431
4432
4433
4434
4435
4436
4437
4438
4439
4440
4441
4442
4443
4444
4445
4446
4447
4448
4450
4451
4452
4453
4455
4456
4457
4460
4461
4516
4519
4520
4687
4713
4715
4799
4800
4801
4803
4804
4805
4808
4809
4812
4813
4816
4822
4828
4833
4834
4835
4836
4837
4838
4839
4840
4841
4842
4843
4844
4857
4860
4861
4862
4863
4864
4865
4866
4867
4868
4869
4870
4871
4892
4893
4894
4895
4896
4897
4898
4899
4900
4901
4902
4903
4904
4905
4906
4907
4911
4915
4916
4917
4927
4928
4929
4930
4935
4936
4938
4943
4945
4946
4949
4950
4958
4960
4961
4962
4963
4970
4973
4975
5007
5008
5009
5015
5016
5017
5018
5019
5020
5021
5022
5023
5024
5025
5026
5041
5060
5061
5062
5063
5064
5065
5066
5067
5068
5069
5070
5071
5072
5073
5076
5078
5088
5089
5090
5128
6203
6316
6317
6318
6320
6321
6322
6395
6396
6397
6893
6894
6895
6914
6915
6916
6917
6918
6919
6920
6921
6922
6939
6940
6941
6942
6943
6944
6945
6946
7024
7025
7036
7037
7115
7116
7117
7118
7132
7133
7137
7138
7178
7179
7180
7182
7190
7191
)


1030
(
1138
2089
2090
2091
2092
2093
2094
2095
2096
2097
2098
2099
2100
2101
2102
2103
2104
2108
2109
2110
2112
2114
2115
2116
2117
2118
2119
2120
2121
2122
2123
2124
2125
2126
2127
2128
2129
2130
2131
2132
2133
2134
2135
2136
2137
2138
2139
2140
2145
2146
2147
2148
2152
2153
2158
2159
2160
2162
2164
2165
2166
2170
2171
2184
2187
2188
2189
2190
2195
2196
2197
2198
2199
2200
2203
2229
2270
2316
2317
2318
2319
2341
2342
2344
2685
2686
2697
2698
2865
2866
2867
2868
2869
2870
2871
2872
2906
2908
2909
3081
3082
3083
3084
3086
3087
3088
3089
3090
3091
3092
3093
3094
3095
3096
3097
3098
3099
3100
3101
3102
3103
3104
3105
3106
3107
3108
3109
3110
3111
3112
3113
3114
3115
3116
3117
3118
3119
3120
3121
3122
3123
3124
3125
3126
3127
3128
3129
3130
3131
3132
3133
3134
3135
3136
3137
3138
3139
3140
3141
3142
3143
3144
3145
3146
3147
3148
3149
3150
3151
3152
3153
3154
3155
3156
3157
3158
3159