/*--------------------------------*- C++ -*----------------------------------*\
  =========                 |
  \\      /  F ield         | OpenFOAM: The Open Source CFD Toolbox
   \\    /   O peration     | Website:  https://openfoam.org
    \\  /    A nd           | Version:  8
     \\/     M anipulation  |
\*---------------------------------------------------------------------------*/
/*   Windows 32 and 64 bit porting by blueCAPE: http://www.bluecape.com.pt   *\
|  Based on Windows porting (2.0.x v4) by Symscape: http://www.symscape.com   |
\*---------------------------------------------------------------------------*/
FoamFile
{
    version     2.0;
    format      ascii;
    class       scalarListList;
    location    "constant/vegetation";
    object      kcLAIboundary;
}
// * * * * * * * * * * * * * * * * * * * * * * * * * * * * * * * * * * * * * //


5
(

493
(
2.3925369
0.81624825
0.13275466
0.45366053
0.30758435
0.20056253
0.00062764719
0.024137697
3.2975262
1.9536621
0.97761931
2.7832452
1.3359106
0.071429756
0.12623484
0.07524965
0.17330736
0.19755858
0.032741505
0.026592121
1.4073624
2.6931275
3.1010648
2.7971867
1.2940522
2.1095977
1.4834163
3.3323005
2.4247045
3.4686531
2.3870807
2.1300011
0.63672042
0.15487604
0.9617673
0.70666558
2.92127
3.1606256
3.1837059
2.556042
2.3825165
0.52722962
0.17114017
0.74502442
3.2981996
3.4173318
2.9660943
0.61293524
0.58479456
0.95140544
1.9469472
0.59259735
0.98796543
3.242393
0.011037266
3.3966632
3.8991104e-05
2.9424825
1.341667
0
0.02835081
0.027937932
0.018647337
0.012703347
0.0055139461
0.014079637
0.010634055
0.0060485555
0.019828719
0.014085139
0.028182962
0.054464693
0.035546145
0.042870961
0.026226645
0.03326421
0.020497429
0.022545719
0.015327685
0.031919657
0.02517575
0.019919609
0.012768561
0.013208489
0.019934472
0.019871254
0.02810448
0.012196265
0.013633545
0.0061775355
0.029283211
0.010856536
0.0057167015
0.021757644
0.058237649
0.030534752
0.044151152
0.036366416
0.035556365
0.039473235
0.066669138
0.03971176
0.067828157
0.036664662
0.036774265
0.039035498
0.064039351
0.038398299
0.066033531
3.5852378e-06
5.2149165e-05
0.0021952019
0.0084987367
0.0042606775
0.0054174413
0.001942507
0.0039043289
4.1535576e-07
2.5621929e-05
5.099429e-05
0.0021866176
0.00015940033
0.00010396016
0.0024417924
0.0059114839
0.0073848904
0.00026305592
0.0027887334
0.0074890257
0.00017033244
0.00010139659
0.00010410694
0.0001804051
0.0055796638
0.0095871881
0
0
0
0
0
0
0
0
0
0
0
0
0
0
0
0
0
0
0.006551022
0.00065711812
0.0014801366
0.0048278913
0
0
0
0
0
0
0
0
0
0
0
0
0
0
0
0
0
0
0
0
0.0017920901
0
0
0
0
0
0.00075386751
0.00859538
0.0025782197
0.010850161
0.010559553
0.014323789
0.0082188876
0
0
0
0
0
0
0
0
0
0
0
0
0
0
0
0
0
0
0
0
0
0
0
0
0
0
0
0
0
0
0
0
0
0
0
0
7.011716e-05
0.0032097828
0.001813711
0
0
0
0
0
0
0
0
0
0.011998327
0.016924801
0
0
0
0
0
0
0
0
0
0
0
0
0
0
0
0
0
0
0
0
0.00069891824
0
2.6924359e-05
0
0.006768027
0.0054322942
0.0033761528
0.0029950573
0
0
0
0
0
0
0
0
0
0
0
0
0
0
0
0
0
0.0032496137
0
0.0017609768
0.010933901
0.015532224
0.026611584
0.02076249
0.01387791
0.018404208
0.022159534
0
0
0
0
0
0
0.021722418
0.015014869
0.0045090231
0.0075254289
0.02764897
0.029011144
0.028646327
0.028919557
0
0
0
0
5.2993812e-05
1.0724347e-05
0.0029883823
0.0013188345
9.8564062e-05
0.00014757625
0.0073596884
0.0031839948
0
0
0
0
0
0
0
0
0
0
0
0
0
0
0
0
0
0
0
0
0
0
0
0
0
0
0
0
0
0
0
0
0
0
0
0
0
0
0
0
0
0
0
0
0
0
0
0
0
0
0
0
0.0073352357
0.0043644757
0
0
0
0
0
0
0
0
0
0
0
0
0
0
0
0
0
0
0
0
0
0.0053621209
0
0.0081733964
0
0.015494573
0.011591759
0
0
0
0
0
0
0
0
0
0
0.0167098
0.018039819
0.0041440289
0.0044961187
0.016483766
0.01735246
0.0027311603
0.0010642505
0.013121709
0.0087512825
0.0026594738
0.0040017258
0.0028853636
0.0038082953
0.0015052346
0.0011655327
8.5417136e-05
0.00030477949
0.00085283467
5.9734943e-05
4.9282539e-05
1.6633236e-05
1.5325696e-05
3.634904e-05
0.0018128297
0.00059081701
4.2280566e-05
0.00070241129
0
0
0
0
0
0
0
0
0
0
0
0
0
0
0
0
0
0
0
0
0
0
0
0
0
0
0
0
0
0
0
0
0
0
0
0
0
0
0
0
0.22480832
1.4844597
2.1924298
2.497399
0.99890969
0.40626376
0.5406967
0.64975179
0.62260768
1.1367521
0.1740433
3.1067354
2.0204223
)


493
(
2.2792097
0.6785041
1.7386105
1.161631
1.5180426
2.0940763
0.1701175
0.40410606
3.4620919
2.9849427
2.5908919
2.9549505
1.8055743
1.2349431
1.1599768
1.6052784
1.8632766
2.0543964
0.20293608
0.21549423
2.4420262
2.9926827
3.3694238
3.5759827
2.8884896
1.8272846
0.13624329
3.1705297
0.99074693
3.3378266
3.0818475
2.8628038
0.96541242
0.51057983
1.8171571
0.052244934
3.3424976
3.0857126
3.3861444
2.9998212
2.0317814
0.36644293
0.025470734
0.49415758
2.6466374
2.7419904
2.147478
1.7463186
0.10321082
0.2189792
1.3737157
0.29853753
0.58472536
2.0998121
0.010419665
3.0433654
0.019706065
1.6376488
0.92627241
0
0.75031784
0.85510417
0.39595413
0.24972218
0.13309338
0.31636988
0.27941219
0.14403748
0.52297425
0.3941894
0.66921848
1.0312522
0.80848218
0.85867418
0.65691009
0.79490981
0.51351537
0.49930405
0.4019448
0.68769315
0.57038726
0.4661964
0.3950033
0.28108238
0.59675331
0.35541724
0.52305172
0.19778873
0.27502471
0.078235053
0.52632359
0.18255233
0.071854968
0.37472651
0.99842647
0.54638039
0.76745603
0.74157797
0.67474993
0.83122816
1.2042002
0.89507538
1.2155878
0.80600529
0.86809279
0.76493648
1.0977026
0.69625883
1.1566788
0.0009365367
0.0027214464
0.032961131
0.17573804
0.057989526
0.11455247
0.027029064
0.048807298
0.0031462642
0.0078269505
0.0039675832
0.048572255
0.013260891
0.0070332552
0.057761975
0.21662174
0.15300045
0.069204975
0.055785047
0.14162583
0.018379673
0.026424848
0.0094875733
0.046831055
0.14863304
0.27026035
0.38576185
0.12160423
0.0026489282
0.33916857
0.026831489
0.0045587377
0.00034208058
0
0.00026442705
0
0
0
0.12039485
0
0.0090820352
0.0016028644
0.076916116
0.061867218
0.14982354
0.096552836
0.13340957
0.10544854
0.0086115585
0.00025282369
0.033264107
0.0054023995
0.26068614
0.10731328
0.084807281
0.08242531
0.063062305
0.11172886
0
0
0
0
0
0
0
0
0
0
0.048871286
0.13386412
0.14598219
0.19645945
0.1010578
0.078683745
0.068310288
0.19763995
0.17336238
0.16098505
0.11525173
0.16712225
0.11114309
0.0029996553
0.00035918386
0.082121106
0.054539129
0.0046882122
0.10911311
0.1438505
0.052661159
0.0086641814
0.03847532
0.015297665
0
0
0
0
0
0
0
0
0.056105182
0.0431727
0.02890713
0.037331848
0
0.016778464
0.0027331553
0.01984996
0.0058392282
0.0038002312
0.026102903
0.016703731
0.00070930395
0.0098076982
0
0.0041642871
0
0.066073809
0.072262566
0.042926086
0.041989962
0
0
0
0
0
0
0
0
0.18133697
0.28641494
0.087190194
0.0068933043
0
0
0.022889873
0
0.00381443
6.9812783e-05
0.19790174
0.26585582
0.33934912
0.25569925
0.11590854
0.019740368
0.03829564
0.15840232
0.0023342087
0.00400415
0.0037573921
0.0022055005
0.015009243
0
0
0.019246214
0.074069909
0.074777357
0.03502791
0.040362377
0
0
0
0
0
0
0
0
0
0
0
0
0
0
0
0
0.15305224
0.2562687
0.23331757
0.15956046
0.38171676
0.50221533
0.75614211
0.62709708
0.21669205
0.23909276
0.41318175
0.0040912914
0.0037030576
0.0010253763
0.0041643324
0.0039221684
0.0016996829
0.46047533
0.30418096
0.063414756
0.14264786
0.61154965
0.6774838
0.79368229
0.73670484
0.064499894
0.020279224
0
0
0
0
0.041875024
0.019646314
0
0.0013086165
0.10059198
0.037956311
0
0
0
0
0
0
0
0
0
0
0
0
0
0
0
0
0
0
0
0
0
0
0
0
0
0
0
0
0
0
0
0
0
0
0
0
0
0
0
0
0
0
0
0
0
0
0
0
0
0
0
0
0.26723288
0.15631003
0
0
0
0
0
0
0
0
0
0
0
0
0
0
0
0
0
0.0030258641
0
0
0.001119145
0.35795574
0.31954849
0.4654931
0.41201008
0.69146428
0.57679581
0.50570706
0.58081479
0.0067903442
0.0069913885
0.010409698
0.0088680032
0.0062742102
0.0054425292
0.0053111275
0.0070991661
0.50588776
0.58276088
0.46544565
0.37894003
0.68298208
0.63399957
0.50466022
0.54488751
0.37220775
0.23326301
0.15188134
0.27231244
0.051511065
0.089165933
0.053493462
0.037547024
0
0
0.007412721
0
0
0
0
0
0.032297817
0.012391129
0.0046163338
0.022078602
0
0
0
0
0
0
0
0
0
0
0
0
0
0
0
0
0
0
0
0
0
0
0
0
0
0
0
0
0
0
0
0
0
0
0
0
0
0
0
0
0.33604117
2.0660159
2.6999643
2.8144499
1.4972336
0.47502039
0.69236333
1.0867834
0.49709051
1.000118
0.22589884
2.7071934
1.4878863
)


493
(
1.1861422
0.10958716
3.0370035
2.1599572
1.6304936
3.1231614
1.2357874
0.95561051
2.9023579
2.8479573
3.1250499
2.6336123
1.6039539
2.8058787
2.535128
3.0378749
2.5182032
2.9428562
0.77730368
0.16244979
2.7095124
2.8208548
3.0711897
3.3052891
3.258086
1.30301
0.25159986
2.5819319
1.5235459
2.3946971
3.1069335
3.0068837
0.73929433
0.56059961
2.0115503
0.9320722
3.0543665
2.2554022
2.9285945
2.9179182
1.9263007
0.3168847
0.05782582
0.30435698
1.8975013
1.7707054
1.1344552
0.93793232
0.17020602
0.0083532694
1.2246921
0.28852635
0.42828858
1.9969197
0.12709301
1.9851537
0.33797783
1.5312565
0.63993703
0
2.4804377
2.5848652
2.0179931
1.6501915
1.2587022
1.8752093
1.6801117
1.4884843
2.1556688
1.996361
2.3434358
2.7606744
2.4865312
2.6461924
2.3016076
2.4476692
2.1798113
2.2660087
2.0403541
2.5293011
2.2816134
2.1017546
1.7628346
1.6974443
2.3114008
1.3473019
1.8230432
0.91232389
0.97115408
0.61187294
1.3904609
0.86279184
0.58256977
1.4057015
2.3432759
1.8901596
1.8640575
2.3895842
2.2900247
2.4883802
2.86082
2.5351982
2.8044919
2.4364492
2.4868557
2.4449273
2.6858984
2.3660204
2.7461849
0.016554946
0.04389558
0.1719004
0.68500416
0.39534476
0.39145264
0.15663198
0.37310344
0.01615496
0.13917485
0.050374692
0.090492127
0.11563083
0.072618296
0.58661485
1.2196755
1.1159939
0.68385705
0.59207754
1.1119247
0.15467269
0.25106105
0.091313292
0.37090581
1.2651984
1.6254768
1.577387
0.90590863
0.022429342
1.3302956
0.14116184
0.025353616
0
0
0
0
0
0
0.76853377
6.0322425e-07
0.051793128
0.013299534
0.51360713
0.46561067
1.1160561
0.63075419
0.82832922
0.9203776
0.27009832
0.28817776
0.39043895
0.074120968
1.0060274
0.44508663
0.45842511
0.36480433
0.31604189
0.54252057
0.01475105
0.0075084406
0.010179633
0.0093501074
0.010084731
0
0
0
0
0
0.86128752
0.79249203
0.93326266
1.0878879
0.69167869
0.64743554
0.76627679
1.3182674
1.0319811
1.3998168
1.4417647
1.6712835
1.2035109
0.037146725
0.41479517
0.7383006
0.56686485
0.52395807
0.61215665
0.74646161
0.35677214
0.16585556
0.24973025
0.23758229
0.018471388
0.064419047
0.012132852
0.10085835
0.011130304
0.0069767956
0.00046640937
0.0034222793
0.21002747
0.18068683
0.12029323
0.14076144
0
0.068966333
0.0075645469
0.074408105
0.020283961
0.10075932
0.149522
0.092223014
0.056529416
0.05557537
0.014149327
0.021746925
0.034461235
0.44157058
0.67546709
0.42184282
0.27874277
0
0
0
0
0.00430398
0.0055265701
0.001128805
0.0012318203
1.5972357
1.8981625
0.52435032
0.23198574
4.7153066e-06
3.8076703e-06
0.16488009
0.013524878
0.041063356
0.0045619592
1.0776794
1.2913639
1.4542157
1.2276829
0.8515482
0.60821227
0.69904084
0.98244813
0.010790688
0.042941886
0.044828174
0.011959388
0.18590245
0.012323407
0.030497997
0.13325573
0.98955352
0.85848943
0.56685435
0.51678086
0.034087244
0.006040026
0.00014622529
0.012872476
0
0.00096084755
0.0057811605
0
0
0
0
0
0
0
0
0
0.95106394
1.4245193
1.2685651
1.0876549
1.8937914
2.0425284
2.340416
2.1917255
1.6042579
1.8871565
2.1164847
0.093012919
0.065692367
0.23519461
0.11910807
0.29398276
0.10666839
1.6395078
1.1884279
0.50417061
0.72855563
2.0818488
2.2332575
2.3497588
2.289661
0.45998323
0.28683825
0.015882827
0.11984353
0.042102858
0.017621173
0.31440016
0.11767984
0.067641324
0.11671558
1.0712609
0.58152562
0
0
0
0
0
0
0
0
0
0
0
0
0
0
0
0
0
0
0
0
0
0
0
0
0
0
0
0.00033814012
0.004119696
0.0045479532
7.9817077e-06
0
0
0
0
0
0
0
0
0
0
0
0
0
0
0
0
0
0
0
0
0
1.5464546
1.1949498
0
0
0
0
0
0
0
0
0
0
0
0
0
0
0
0
0
0.14913519
1.3097562e-05
0.029789813
0.017565794
1.7210651
1.5138971
1.8744639
1.6696724
2.1785327
2.0273909
1.8277
1.9413574
0.13208137
0.34920647
0.41966162
0.14593332
0.10359709
0.07387301
0.078453089
0.1160099
1.7746745
1.9890559
1.6611131
1.3860536
2.1347963
2.0600874
1.7479717
1.8460093
1.3701739
0.95680114
0.66744254
1.0446981
0.39369263
0.54616099
0.38078716
0.26472911
0.059149713
0.16551913
0.19357812
0.045488822
0.037880787
0.017769594
0.015205213
0.03008737
0.23422938
0.067762596
0.018695603
0.15012722
0
0
0
0
0
0
0
0
0
0
0
0
0
0
0
0
0
0
0
0
0
0
0
0
0
0
0
0
0
0
0
0
0.0023982569
0
0
0.00087986572
0
0
0
0
0.49354629
2.233868
2.9267124
2.6506179
2.0129343
0.57001335
1.0405018
1.7498908
0.38425688
0.75487673
0.32359359
1.7822218
1.0238804
)


493
(
0.76010609
0.10126248
2.8687216
2.7020484
0.73871367
2.7084975
2.2983793
0.19659939
3.5404186
2.3985406
3.0198562
3.6890479
2.2449372
2.9309197
2.8187215
3.2226451
1.6199185
2.4330046
1.157892
0.52579535
2.9105574
3.3294066
3.7657792
3.3918934
3.143979
2.748712
0.39785171
3.8552261
1000
3.5085471
3.3257146
3.0933738
0.8516274
0.32691051
2.4711021
1000
3.0559863
2.6367326
3.6109494
3.4133953
2.8182418
0.26079166
0.29038589
0.8700299
3.7863545
3.3930861
2.0239873
0.2296155
0.17994999
0.16299632
2.0331331
1000
1.4602749
3.3115012
1000
3.3634731
0.95266393
2.4305962
1.2183403
0
3.0107127
3.0195957
2.7691825
2.6205445
2.4372668
2.8827692
2.7912863
2.5781724
2.8580527
2.8160282
2.9245856
3.0551314
2.8954762
3.0804708
2.9016612
2.8738161
2.8747876
3.0055517
2.8390237
3.0442196
2.9423161
2.8100382
2.723164
2.6435445
2.8607025
1.0275702
1.5234596
0.74210688
0.58342403
0.46274611
0.89514573
0.72564654
0.45022999
1.051825
1.7199802
1.5444829
1.2593616
2.5202555
2.0210262
2.7115767
2.9163274
2.8052014
2.7794606
2.7014354
2.7891419
2.5349854
2.1828385
2.0389844
2.6445471
0.3193152
0.50970274
0.13465417
0.27063569
0.18114316
0.12369022
0.1339211
0.17266319
0.32874119
0.65251258
0.52689568
0.38666455
1.3178173
0.76574392
1.8589587
2.4371601
2.4166157
1.9271128
1.8679498
2.423626
1.3971963
0.92129614
0.77152163
1.417044
2.4490745
2.7546798
2.4199169
2.0954649
0.14646272
2.3297455
0.29222998
0.037970709
0.0046645817
0
0.0013958962
0
0
0.008519942
1.9680744
0.00079559143
0.14535237
0.066310949
1.7712666
1.5996068
2.4393783
2.0702892
2.2120153
2.3227173
1.2573197
1.2101694
1.4320811
0.53510334
1.7018698
0.68967218
1.7729355
1.8218074
1.5790106
1.9895056
0.24472929
0.090833526
0.16651682
0.12955068
0.12257072
0
0.00046851511
0
0
0.0035232456
2.1151215
2.0978991
2.1785281
2.3457633
1.9464011
1.9440449
2.0539552
2.5518131
2.3296136
2.5623861
2.5229225
2.6433827
2.4536402
0.27981683
1.5475156
2.0133788
1.7984796
1.7190835
1.8731687
2.1032803
1.4256888
0.86590118
1.2351648
1.0373964
0.3468304
0.49189495
0.23387303
0.64448149
0.23224501
0.12410668
0
0.018166153
1.6525183
1.3836156
1.1078752
1.3260682
0.00084690235
0.72035857
0.39750522
0.86619998
0.34083235
0.69701093
1.0474642
0.83327528
0.52909188
0.54794703
0.16895106
0.27449963
0.34837633
1.9269128
2.2045824
1.7060561
1.5258898
0
0
5.5370789e-05
0
0.050305226
0.091073127
0.018840484
0.011529738
2.5804664
2.7142447
1.2770309
1.0026416
0.0034355751
0.0031559167
0.35270015
0.054734862
0.23201349
0.029981595
2.2533592
2.4026776
2.4564369
2.3289076
2.1063154
1.8153106
1.9132415
2.2060824
0.053778312
0.30784732
0.33798153
0.063156329
1.1039993
0.46056655
0.49654244
0.9950538
2.4066084
2.3473293
1.8190286
1.7900411
0.33997539
0.12381035
0.015401141
0.19550573
0.0087223612
0.056710507
0.12261716
0.0048007405
0.065649245
0.045654891
0.0060668842
0.0039675267
0.020227027
0.0096365697
0.0029567186
0.001704028
2.2497887
2.6333131
2.5117098
2.3492678
2.7570436
2.7975981
2.8134381
2.8392636
2.676899
2.7722907
2.8627151
0.75081736
0.51701075
1.2656167
1.052364
1.3872281
0.97248407
1.4638714
0.9592499
0.41640467
0.68058719
1.970192
2.4781506
2.7454868
2.6744325
1.5034765
1.086231
0.34258484
0.6711543
0.45669706
0.29072008
0.15005873
0.12954563
0.7181064
1.282298
2.4163601
1.8471359
0
0
0
0
0
0
0
0
0
0
0
0
0
0
0
0
0
0
0
0
0
0
0
0
0
0
0
0
0.0068126222
0.014180207
0
0
0
0
0
0
0
0
0
0
0
0
0
0
0
0
0
0
0
0
0
0
2.714739
2.4084915
0
0
0
0
0
0
0
0
0
0
0
0
0
0
0
0
0
0.58111886
0.010742414
0.15134277
0.10488179
2.6692561
2.551863
2.7062994
2.5870347
2.7247056
2.7441036
2.6271928
2.6077569
1.1248917
1.471718
1.5701053
1.1975136
0.80605782
0.55857171
0.59993106
0.87156159
1.890095
2.4114429
2.3118158
1.7622594
2.6821201
2.6367486
2.5712046
2.5889779
1.3705142
0.85899811
0.74980939
1.2514484
0.36735752
0.61425081
0.53625244
0.30464682
0.64447088
1.2314633
1.1754859
0.53084708
0.36965339
0.24068043
0.16363733
0.25039546
0.11836746
0.11701891
0.091157107
0.087819561
0
0
0.0017568457
0.0012350938
0
0
0
0
0
0
0
0
0
0
0.00025160493
5.0049893e-05
0
0
0.00042152869
0.00058282727
0
0
0
0
0
0
0
0
0
0
0
0
0.001779314
0
0
0.00016655035
0
0
0
0
0.80073094
2.483211
2.7002654
2.3606621
2.2666312
0.62090491
1.382285
2.1821026
0.41363306
0.47594746
0.38781531
2.9675573
0.82883819
)


493
(
1000
1000
1000
1000
1000
1000
1000
1000
1000
1000
1000
1000
1000
1000
1000
1000
1000
1000
1000
1000
1000
1000
1000
1000
1000
1000
1000
1000
1000
1000
1000
1000
1000
1000
1000
1000
1000
1000
1000
1000
1000
1000
1000
1000
1000
1000
1000
1000
1000
1000
1000
1000
1000
1000
1000
1000
1000
1000
1000
0
4.5437466
1000
4.0822031
3.9339237
4.0263176
4.4836492
3.9394
4.5721575
3.7571245
3.8391204
3.6290899
3.9035304
3.4593633
4.0949087
3.5847266
3.4145801
3.8295808
4.4082246
3.8940643
4.2882312
4.1848744
4.2147292
4.5410617
4.0204524
4.7073972
0.51847482
0.82147581
0.21010297
0.086394766
0.10940122
0.16531002
0.21491313
0.11144899
0.50953893
0.68272346
0.80832271
0.42429538
1.9061831
1.2418066
2.5962933
3.6744894
3.2826331
2.8153929
2.5729389
3.2417945
1.9118144
1.1043416
1.2298628
1.9586825
0.97206344
1.7208803
0.66386907
0.28701827
0.38616713
0.48869045
0.68163558
0.39602023
0.949036
1.7241315
1.7166253
0.73930049
3.2155461
2.4671168
3.6116902
4.3163361
3.7943358
4.1043491
3.5635822
3.737034
3.3543395
2.7062369
2.4722858
3.6871612
3.9447937
3.8815543
2.5107803
2.3089116
0.55064189
2.0923102
0.092716969
0.31718055
0.064798831
0
0
0
0.01183495
0.1666865
1.9773521
0
0.046384347
0.32310906
2.85831
2.6018595
3.0015235
2.6642962
2.7511784
2.9108281
1.9650544
2.2818441
2.4415996
1.3176938
1.3015526
0.64024022
2.4043737
2.5186325
2.3750511
2.5779186
0.95388431
0.36806781
0.85800564
0.42960867
0.78466926
0
0
0.00033346109
0.0059313452
0.24165487
3.6681943
2.9788738
2.7092956
2.9684568
2.7162805
3.1255506
3.3811013
2.9816462
2.7363681
3.2982793
3.4959678
3.5800328
3.2138522
1.0134343
2.4039225
2.5557112
2.5603708
2.4014961
2.388039
2.5622461
2.2202824
1.9572064
2.1931757
2.0250672
1.4756426
1.7174863
1.3509983
1.8319899
0.87086064
0.39489527
0.088579513
0.15280252
2.4251013
2.3270074
2.278782
2.3322306
0.063241985
1.9572631
1.4250071
2.0170869
1.3506158
1.8463431
2.1455256
2.1000507
1.7386149
1.7770715
0.92038559
1.1931185
1.4279745
2.5253473
2.757755
2.6078618
2.3879403
0
0
0.034664085
0.033665297
0.28967838
0.72570158
0.58393925
0.20066668
3.7447831
3.8506758
0.92535518
1.6478956
0
0.00034201172
0.27990794
0.0060875309
0.8851477
0.11648028
2.7015823
2.9560271
2.8917754
2.6435604
2.5509172
2.3990202
2.3735818
2.5146075
0.5068127
1.0041648
0.98156232
0.48017049
2.2944054
1.529923
1.7220567
2.077353
3.34139
3.0616008
3.1937565
2.9134411
1.5416201
1.1667927
0.96189984
1.3695077
0.7444052
0.70335605
1.0845016
0.4757264
0.86128926
0.38083934
0.73958535
0.23087282
0.45905607
0.60377484
0.13575308
0.10696582
3.2507018
3.485503
3.2376428
3.5034745
3.6868787
3.6168497
3.2869099
3.4514818
3.2742935
3.561217
3.8717413
1.7989842
1.5115071
2.2363288
2.016768
2.234647
2.0202066
0.85839314
0.54378575
0.11653632
0.22860249
1.2743985
1.8892468
3.1225154
2.5065062
2.1821124
1.9410036
1.3443085
1.7020098
1.7233953
1.0386596
0.42298785
0.73039611
2.408157
3.0926783
3.5749939
3.4194517
0
0
0
0
0
0
0
0
0
0
0
0
0
0
0
0
0
0
0
0
0
0
0
0
0
0.02410825
0
0.092840914
0.11852682
0.15957992
0.068432413
0.025777139
0
0
0.019202207
0
0
0
0
0
0
0
0
0
0
0
0
0
0
0
0
0.11800689
3.7147018
3.7542901
0
0
0
0
0
0
0
0
0
0
0
0
0
0
0
0
0
0.5877068
0.0018559172
0.027216644
0.31333942
3.4702057
3.223591
3.409667
3.147237
3.0885577
3.2490047
2.9941719
2.8218661
2.0131724
2.2329041
2.2207436
1.9778934
1.7936412
1.5015914
1.4459858
1.7555922
1.2700168
1.8251448
1.7064131
1.1968819
2.9284002
2.381605
2.1799516
2.6682057
0.86786356
0.55174662
0.5269704
0.83810289
0.10821097
0.23616028
0.23912769
0.090478129
2.2392177
2.8742734
2.5927748
1.9579963
1.6084491
0.99029333
0.81945098
1.3825162
0.4034484
0.69760931
0.58355341
0.32791695
0
0
0.025649128
0.015945044
0
0
0
0
0
0
0
0
0
0
0
0
0
0
0
0.0049313551
0
0
0
0.000493296
0
0
0
0
0
0
0.0017581777
0.0012237871
0.071593574
0.041497232
0.013870413
0.021917143
0
0.012006733
0
0.0041854903
1.2384329
1000
1000
2.6438562
2.1998287
0.60332526
1.9412817
2.3798969
0.55114217
0.46010095
0.3785173
1000
1000
)

)


// ************************************************************************* //
