/*--------------------------------*- C++ -*----------------------------------*\
  =========                 |
  \\      /  F ield         | OpenFOAM: The Open Source CFD Toolbox
   \\    /   O peration     | Website:  https://openfoam.org
    \\  /    A nd           | Version:  8
     \\/     M anipulation  |
\*---------------------------------------------------------------------------*/
/*   Windows 32 and 64 bit porting by blueCAPE: http://www.bluecape.com.pt   *\
|  Based on Windows porting (2.0.x v4) by Symscape: http://www.symscape.com   |
\*---------------------------------------------------------------------------*/
FoamFile
{
    version     2.0;
    format      ascii;
    class       scalarListList;
    location    "constant/vegetation";
    object      solarLoadFineFaces;
}
// * * * * * * * * * * * * * * * * * * * * * * * * * * * * * * * * * * * * * //


5
(

1333
(
65.539595
717.08284
717.08284
717.08284
717.08284
717.08284
717.08284
717.08284
317.01311
65.539595
26.513795
717.08284
717.08284
717.08284
26.513795
44.342615
717.08284
717.08284
717.08284
188.53445
717.08284
717.08284
717.08284
717.08284
717.08284
717.08284
717.08284
175.53334
48.52426
32.269631
43.728702
717.08284
188.53445
86.972647
717.08284
44.342615
25.607643
162.67837
63.464892
22.343563
717.08284
717.08284
48.52426
65.89817
65.89817
717.08284
85.21609
32.269631
717.08284
196.5937
717.08284
717.08284
717.08284
717.08284
717.08284
717.08284
717.08284
717.08284
25.607643
717.08284
38.625836
101.64936
30.403744
269.77063
269.77063
717.08284
29.710053
29.710053
26.513795
55.653745
55.653745
44.342615
196.5937
717.08284
48.52426
48.52426
48.52426
32.269631
32.269631
32.269631
66.19963
717.08284
717.08284
717.08284
717.08284
86.972647
44.342615
26.495947
25.607643
26.495947
23.520199
36.93269
63.464892
30.403744
36.93269
23.520199
48.52426
29.710053
29.710053
55.653745
55.653745
32.269631
717.08284
717.08284
717.08284
717.08284
717.08284
276.93586
162.67837
36.93269
65.539595
717.08284
717.08284
717.08284
188.53445
717.08284
274.08111
66.19963
102.33422
188.53445
717.08284
717.08284
86.972647
717.08284
717.08284
717.08284
86.972647
44.342615
66.19963
25.607643
25.607643
25.607643
28.016633
63.464892
36.93269
162.67837
22.343563
22.343563
22.343563
717.08284
717.08284
353.72713
102.33422
102.33422
66.19963
86.972647
266.99393
102.33422
86.972647
44.342615
26.495947
25.607643
26.495947
23.520199
28.016633
28.016633
24.011387
24.011387
23.520199
65.539595
101.64936
388.48561
717.08284
717.08284
717.08284
717.08284
717.08284
717.08284
717.08284
717.08284
717.08284
717.08284
717.08284
717.08284
717.08284
717.08284
717.08284
717.08284
717.08284
717.08284
26.513795
101.64936
26.513795
717.08284
101.64936
101.64936
717.08284
101.64936
717.08284
717.08284
717.08284
717.08284
717.08284
717.08284
717.08284
717.08284
717.08284
717.08284
717.08284
717.08284
717.08284
717.08284
717.08284
717.08284
717.08284
717.08284
717.08284
717.08284
717.08284
717.08284
175.53334
175.53334
175.53334
43.728702
43.728702
43.728702
28.016633
37.815114
63.464892
65.89817
29.710053
175.53334
38.625836
29.710053
65.89817
85.21609
85.21609
274.08111
85.21609
85.21609
85.21609
717.08284
717.08284
717.08284
274.08111
717.08284
717.08284
717.08284
717.08284
717.08284
717.08284
717.08284
353.72713
717.08284
717.08284
717.08284
38.625836
38.625836
38.625836
30.403744
101.64936
101.64936
717.08284
187.45229
717.08284
717.08284
717.08284
717.08284
717.08284
717.08284
717.08284
717.08284
717.08284
717.08284
37.815114
37.815114
36.93269
63.464892
37.815114
37.815114
24.011387
24.011387
30.403744
36.93269
24.011387
24.011387
717.08284
717.08284
717.08284
717.08284
717.08284
717.08284
717.08284
717.08284
717.08284
717.08284
717.08284
717.08284
717.08284
80.639504
79.440084
80.639504
80.639504
80.639504
80.639504
80.639504
80.639504
80.639504
80.639504
80.639504
80.639504
80.639504
80.639504
80.639504
80.639504
80.639504
80.639504
80.639504
80.639504
80.639504
80.639504
80.639504
80.639504
80.639504
80.639504
80.639504
80.639504
80.639504
80.639504
80.639504
80.639504
80.639504
80.639504
80.639504
80.639504
80.639504
80.639504
80.639504
80.639504
80.639504
80.639504
80.639504
80.639504
80.639504
80.639504
80.639504
80.639504
80.639504
80.639504
80.639504
80.639504
80.639504
80.639504
80.639504
80.639504
80.639504
80.639504
80.639504
80.639504
80.639504
80.639504
80.639504
80.639504
80.639504
80.639504
80.639504
80.639504
80.639504
80.639504
80.639504
80.639504
80.639504
80.639504
80.639504
80.639504
80.639504
80.639504
80.639504
80.639504
80.639504
80.639504
80.639504
80.639504
80.639504
80.639504
80.639504
80.639504
80.639504
80.639504
80.639504
80.639504
80.639504
80.639504
80.639504
80.639504
80.639504
80.639504
80.639504
80.639504
80.639504
80.639504
80.639504
80.639504
80.639504
80.639504
80.639504
80.639504
80.639504
80.639504
80.639504
80.639504
80.639504
80.639504
80.639504
80.639504
80.639504
80.639504
80.639504
80.639504
80.639504
80.639504
80.639504
80.639504
80.639504
80.639504
80.639504
80.639504
80.639504
80.639504
80.639504
80.639504
80.639504
80.639504
80.639504
80.639504
80.639504
80.639504
80.639504
80.639504
80.639504
80.639504
80.639504
80.639504
80.639504
80.639504
80.639504
80.639504
80.639504
80.639504
80.639504
80.639504
80.639504
80.639504
80.639504
80.639504
80.639504
80.639504
80.639504
80.639504
80.639504
80.639504
80.639504
80.639504
80.639504
80.639504
80.639504
80.639504
80.639504
80.639504
80.639504
80.639504
80.639504
80.639504
80.639504
80.639504
80.639504
80.639504
80.639504
80.639504
80.639504
80.639504
80.639504
80.639504
80.639504
80.639504
80.639504
80.639504
80.639504
80.639504
80.639504
80.639504
80.639504
80.639504
80.639504
80.639504
80.639504
80.639504
80.639504
80.639504
80.639504
80.639504
80.639504
80.639504
80.639504
80.639504
80.639504
80.639504
80.639504
80.639504
80.639504
80.639504
80.639504
80.639504
80.639504
80.639504
80.639504
80.639504
80.639504
80.639504
80.639504
80.639504
80.639504
80.639504
80.639504
80.639504
80.639504
80.639504
80.639504
80.639504
80.639504
80.639504
80.639504
80.639504
80.639504
80.639504
80.639504
80.639504
80.639504
80.639504
80.639504
80.639504
80.639504
80.639504
80.639504
80.639504
80.639504
80.639504
80.639504
80.639504
80.639504
80.639504
80.639504
80.639504
80.639504
80.639504
80.639504
80.639504
80.639504
80.639504
80.639504
80.639504
80.639504
80.639504
80.639504
80.639504
80.639504
80.639504
80.639504
80.639504
80.639504
80.639504
80.639504
80.639504
80.639504
80.639504
80.639504
80.639504
80.639504
80.639504
80.639504
80.639504
80.639504
80.639504
80.639504
80.639504
80.639504
80.639504
80.639504
80.639504
80.639504
80.639504
80.639504
80.639504
80.639504
80.639504
80.639504
80.639504
80.639504
80.639504
80.639504
80.639504
80.639504
80.639504
80.639504
80.639504
80.639504
80.639504
80.639504
80.639504
80.639504
80.639504
80.639504
80.639504
80.639504
80.639504
80.639504
80.639504
80.639504
80.639504
80.639504
80.639504
80.639504
80.639504
80.639504
80.639504
80.639504
80.639504
80.639504
80.639504
80.639504
80.639504
80.639504
80.639504
80.639504
80.639504
80.639504
80.639504
80.639504
80.639504
80.639504
80.639504
80.639504
80.639504
80.639504
80.639504
80.639504
80.639504
80.639504
80.639504
80.639504
80.639504
80.639504
80.639504
80.639504
80.639504
80.639504
80.639504
80.639504
80.639504
80.639504
80.639504
80.639504
80.639504
80.639504
80.639504
80.639504
80.639504
80.639504
80.639504
80.639504
80.639504
80.639504
80.639504
80.639504
80.639504
80.639504
80.639504
80.639504
80.639504
80.639504
80.639504
80.639504
80.639504
80.639504
80.639504
80.639504
80.639504
80.639504
80.639504
80.639504
80.639504
80.639504
80.639504
80.639504
80.639504
80.639504
80.639504
80.639504
80.639504
80.639504
80.639504
80.639504
80.639504
80.639504
80.639504
80.639504
80.639504
80.639504
80.639504
80.639504
80.639504
80.639504
80.639504
80.639504
80.639504
80.639504
80.639504
80.639504
80.639504
114.91011
0
0
0
0
0
0
0
0
0
0
60.230316
0
0
53.397059
0
0
0
0
0
63.896131
51.746986
0
212.83419
132.49092
85.854715
25.833409
50.049648
0
0
0
239.69843
444.89329
0
0
0
0
379.52133
62.896872
101.39499
0
0
0
107.37791
0
0
0
0
0
0
0
25.827956
101.99018
369.16457
93.717579
237.30041
0
0
0
0
0
63.103941
0
0
0
0
0
0
0
61.462199
0
0
0
0
0
0
0
0
0
0
0
413.51148
308.75346
449.44549
306.41962
0
16.557158
136.51868
0
0
46.737434
5.450333
160.07855
578.13739
0
0
0
0
0
0
0
0
0
0
0
0
0
0
0
0
0
0
0
0
0
0
0
0
0
0
0
0
0
0
0
0
101.72227
60.82017
84.075771
61.033884
127.89569
0
0
0
0
0
68.625893
0
0
0
0
0
0
0
0
0
0
0
0
0
0
0
0
0
0
0
0
0
0
13.390027
0
13.48058
54.918636
68.621395
61.192463
28.488496
41.079961
28.498997
0
0
0
229.50317
187.68593
182.05826
116.07723
185.73208
0
23.961414
355.67075
566.85443
492.46404
202.86221
466.38604
20.385227
0
0
0
0
0
0
0
0
0
0
0
0
0
0
0
190.28343
0
0
0
0
12.527292
4.4465516
0
0
12.673619
4.4348634
377.73502
392.55484
426.47949
414.55618
411.29035
384.3096
428.81603
142.80834
0
53.274032
59.383105
2.086486
83.75599
0
0
0
0
0
0
105.0433
18.331572
101.97292
377.00596
106.88601
101.0848
74.53537
240.22157
189.95011
101.79024
173.71283
175.125
204.40461
0.12130138
7.4889973
14.558879
0
27.371003
0
0
0
0
0
0
0
0
0
0
28.399917
19.834117
0
28.399914
71.582561
31.172986
0
0
0
0
0
0
0
0
0
0
0
0
0
0
0
0
0
0
0
0
0
0
0
0
0
0
0
144.82574
278.86958
125.73053
279.21127
146.95323
436.68734
447.36785
446.52971
434.17971
459.68327
303.85393
174.45938
172.63073
306.44117
306.41728
170.98055
0
22.794636
38.82431
13.633245
30.673099
15.231275
15.240118
3.8727321
116.2721
0
0
0
0
0
0
2.3845147
36.427589
41.342306
0
0
0
0
0
207.97823
206.28198
526.70832
622.9388
655.95421
566.52393
563.30243
684.78693
589.13303
293.07722
253.06769
0
206.91401
248.09529
439.83456
28.477796
0
0
0
28.493891
0
0
0
30.178699
104.82716
0
0
38.422789
293.60132
0
0
0
231.46027
214.18775
419.91647
469.98357
562.12191
354.44707
173.88889
246.03444
194.2665
21.956974
22.959974
0
0
117.48572
110.96015
287.62031
269.92014
438.15841
0
0
0
0
0
0
0
0
87.235575
288.97691
233.59196
129.02662
160.07918
129.12198
304.0747
301.33841
157.61697
584.48526
0
0
87.233039
0
146.14226
2.3813469
0
157.56519
0
0
0
0
0
0
0
0
0
0
0
0
134.57029
105.66092
112.38252
0
109.19675
116.08974
28.495399
0
0
0
0
0
0
0
0
0
0
0
0
0
0
0
0
13.405732
107.38611
161.76985
394.23658
28.488504
167.89776
250.45775
172.20507
169.49968
0
0
0
0
0
0
0
0
0
0
0
0
0
0
0
0
19.326768
0
0
0
296.4646
293.79146
522.16398
342.12217
476.51999
54.865056
56.338975
35.100562
10.665341
326.68031
349.12144
299.46683
52.87135
114.58202
96.642766
0
0
198.81384
198.20237
254.44934
516.84845
527.85771
645.92683
278.80651
435.84711
437.07484
421.01918
264.98976
14.719275
87.560347
7.611395
0
0
0
0
0
0
0
0
483.22874
256.46423
304.3757
290.4349
171.01503
327.37941
385.51988
14.312588
14.314819
104.36545
173.73377
39.361747
43.90226
193.33034
0
0
0
0
0
0
0
0
0
0
0
0
0
55.808915
56.021575
0
0
0
0
0
0
0
0
0
0
0
0
0
0
0
0
0
0
0
0
0
0
0
0
541.50636
100.27892
130.5242
277.11965
300.79097
233.59587
284.76974
132.52246
308.34331
442.50102
444.96524
434.75337
302.58677
303.90602
302.39209
161.81862
305.91074
174.13281
157.57812
130.41427
171.91994
284.4011
121.43296
18.212843
132.46929
6.2057809
0
0
0
10.200818
8.9649463
0
8.8746302
5.6969454
26.430675
28.715763
0
16.674724
1.0983492
164.48908
27.725331
153.17533
0
0
0
0
195.10629
189.44052
216.28727
241.92422
216.29368
581.94089
701.6835
586.40918
0
136.2704
12.294523
71.568794
121.29447
0
0
0
11.504776
)


1333
(
59.961528
585.76158
102.95607
585.76158
585.76158
72.156441
585.76158
585.76158
585.76158
59.961528
18.371875
29.605796
128.36404
43.904681
18.371875
30.507189
183.32891
585.76158
585.76158
96.287504
170.36952
585.76158
117.64063
90.888752
75.077165
585.76158
585.76158
50.952134
29.377532
20.155739
16.394242
32.603618
96.287504
585.76158
585.76158
30.507189
24.591065
585.76158
217.49284
20.802772
183.63242
183.63242
29.377532
26.871476
26.871476
33.451916
33.451916
20.155739
32.603618
32.603618
183.32891
585.76158
585.76158
95.178659
117.64063
585.76158
117.64063
585.76158
24.591065
585.76158
20.705829
29.605796
26.767815
43.904681
43.904681
43.904681
19.821525
19.821525
18.371875
29.168567
29.168567
30.507189
32.603618
32.603618
29.377532
29.377532
29.377532
20.155739
20.155739
20.155739
76.794379
585.76158
585.76158
585.76158
585.76158
94.219602
30.507189
41.524161
24.591065
41.524161
37.747621
68.404243
585.76158
26.767815
68.404243
37.747621
29.377532
19.821525
19.821525
29.168567
29.168567
20.155739
102.16552
585.76158
585.76158
585.76158
585.76158
585.76158
511.15331
68.404243
59.961528
585.76158
585.76158
585.76158
96.287504
95.178659
95.178659
76.794379
148.29405
96.287504
585.76158
585.76158
94.219602
585.76158
585.76158
585.76158
94.219602
30.507189
76.794379
24.591065
24.591065
24.591065
71.743751
585.76158
68.404243
585.76158
20.802772
20.802772
20.802772
585.76158
585.76158
585.76158
148.29405
148.29405
76.794379
94.219602
585.76158
148.29405
94.219602
30.507189
41.524161
24.591065
41.524161
37.747621
71.743751
71.743751
27.925701
27.925701
37.747621
59.961528
29.605796
102.16552
102.95607
102.95607
102.95607
585.76158
585.76158
585.76158
128.36404
585.76158
585.76158
72.156441
72.156441
72.156441
585.76158
585.76158
585.76158
585.76158
585.76158
585.76158
18.371875
29.605796
18.371875
29.605796
29.605796
29.605796
102.16552
29.605796
128.36404
585.76158
585.76158
585.76158
585.76158
170.36952
170.36952
585.76158
585.76158
585.76158
90.888752
90.888752
90.888752
75.077165
75.077165
75.077165
585.76158
585.76158
585.76158
585.76158
585.76158
585.76158
50.952134
50.952134
50.952134
16.394242
16.394242
16.394242
71.743751
113.89353
217.49284
26.871476
19.821525
50.952134
20.705829
19.821525
26.871476
33.451916
33.451916
95.178659
33.451916
33.451916
33.451916
585.76158
585.76158
223.0733
95.178659
95.178659
95.178659
585.76158
585.76158
585.76158
585.76158
585.76158
585.76158
585.76158
585.76158
585.76158
20.705829
20.705829
20.705829
26.767815
29.605796
29.605796
585.76158
585.76158
585.76158
223.0733
231.97751
585.76158
585.76158
585.76158
585.76158
585.76158
585.76158
585.76158
113.89353
113.89353
68.404243
585.76158
113.89353
113.89353
27.925701
27.925701
26.767815
68.404243
27.925701
27.925701
585.76158
585.76158
585.76158
585.76158
585.76158
585.76158
585.76158
585.76158
585.76158
585.76158
585.76158
585.76158
585.76158
227.80796
226.83494
227.80796
227.80796
227.80796
227.80796
227.80796
227.80796
227.80796
227.80796
227.80796
227.80796
227.80796
227.80796
227.80796
227.80796
227.80796
227.80796
227.80796
227.80796
227.80796
227.80796
227.80796
227.80796
227.80796
227.80796
227.80796
227.80796
227.80796
227.80796
227.80796
227.80796
227.80796
227.80796
227.80796
227.80796
227.80796
227.80796
227.80796
227.80796
68.326848
227.80796
67.553183
227.80796
227.80796
227.80796
227.80796
227.80796
71.652223
227.80796
227.80796
227.80796
227.80796
227.80796
227.80796
227.80796
227.80796
227.80796
227.80796
227.80796
227.80796
227.80796
227.80796
227.80796
227.80796
227.80796
227.80796
227.80796
227.80796
227.80796
227.80796
227.80796
227.80796
227.80796
227.80796
227.80796
227.80796
227.80796
227.80796
227.80796
227.80796
227.80796
227.80796
227.80796
227.80796
227.80796
227.80796
227.80796
227.80796
227.80796
227.80796
227.80796
227.80796
227.80796
227.80796
227.80796
227.80796
227.80796
227.80796
227.80796
227.80796
227.80796
227.80796
227.80796
227.80796
227.80796
227.80796
227.80796
227.80796
227.80796
227.80796
227.80796
227.80796
227.80796
227.80796
227.80796
227.80796
227.80796
227.80796
227.80796
227.80796
227.80796
227.80796
227.80796
227.80796
227.80796
227.80796
227.80796
227.80796
227.80796
227.80796
227.80796
227.80796
227.80796
227.80796
227.80796
227.80796
227.80796
227.80796
227.80796
227.80796
227.80796
227.80796
227.80796
227.80796
227.80796
227.80796
227.80796
227.80796
227.80796
227.80796
227.80796
227.80796
227.80796
227.80796
227.80796
227.80796
227.80796
227.80796
227.80796
227.80796
227.80796
227.80796
227.80796
227.80796
227.80796
227.80796
227.80796
227.80796
227.80796
227.80796
227.80796
227.80796
227.80796
227.80796
227.80796
227.80796
227.80796
227.80796
227.80796
227.80796
227.80796
227.80796
227.80796
227.80796
227.80796
227.80796
227.80796
227.80796
227.80796
227.80796
227.80796
227.80796
227.80796
227.80796
227.80796
227.80796
227.80796
227.80796
227.80796
227.80796
227.80796
227.80796
227.80796
227.80796
227.80796
227.80796
227.80796
227.80796
227.80796
227.80796
227.80796
227.80796
227.80796
227.80796
227.80796
227.80796
227.80796
227.80796
227.80796
227.80796
227.80796
227.80796
227.80796
227.80796
227.80796
227.80796
227.80796
227.80796
227.80796
227.80796
227.80796
227.80796
227.80796
227.80796
227.80796
227.80796
227.80796
227.80796
227.80796
227.80796
227.80796
227.80796
227.80796
227.80796
227.80796
227.80796
227.80796
227.80796
227.80796
227.80796
227.80796
227.80796
227.80796
227.80796
227.80796
227.80796
227.80796
227.80796
227.80796
227.80796
227.80796
227.80796
227.80796
227.80796
227.80796
227.80796
227.80796
227.80796
227.80796
227.80796
227.80796
227.80796
227.80796
227.80796
227.80796
227.80796
227.80796
227.80796
227.80796
227.80796
227.80796
227.80796
227.80796
227.80796
227.80796
227.80796
227.80796
227.80796
227.80796
227.80796
227.80796
227.80796
227.80796
227.80796
227.80796
227.80796
227.80796
227.80796
227.80796
227.80796
227.80796
227.80796
227.80796
227.80796
227.80796
227.80796
227.80796
227.80796
227.80796
227.80796
227.80796
227.80796
227.80796
227.80796
227.80796
227.80796
227.80796
227.80796
227.80796
227.80796
227.80796
227.80796
227.80796
227.80796
227.80796
227.80796
227.80796
227.80796
227.80796
227.80796
227.80796
227.80796
227.80796
227.80796
227.80796
227.80796
227.80796
227.80796
227.80796
227.80796
227.80796
227.80796
227.80796
227.80796
227.80796
227.80796
227.80796
227.80796
227.80796
227.80796
227.80796
227.80796
227.80796
227.80796
227.80796
227.80796
227.80796
227.80796
227.80796
227.80796
227.80796
227.80796
227.80796
227.80796
227.80796
227.80796
227.80796
227.80796
227.80796
227.80796
227.80796
227.80796
227.80796
227.80796
227.80796
227.80796
227.80796
227.80796
227.80796
227.80796
227.80796
227.80796
227.80796
227.80796
227.80796
227.80796
227.80796
227.80796
227.80796
227.80796
227.80796
227.80796
227.80796
227.80796
227.80796
227.80796
227.80796
227.80796
227.80796
227.80796
227.80796
227.80796
227.80796
227.80796
227.80796
227.80796
227.80796
227.80796
227.80796
227.80796
227.80796
227.80796
227.80796
227.80796
227.80796
227.80796
227.80796
227.80796
227.80796
40.218758
0
0
0
0
0
0
0
0
0
0
131.91264
0
0
0
0
0
0
0
0
0
0
0
24.237674
29.489505
0
0
103.17702
0
0
0
112.2356
350.03089
0
0
0
0
177.60926
133.67729
114.14927
0
0
0
118.8846
0
0
0
0
0
0
0
0
0
212.05391
0
113.83272
0
0
0
0
0
64.306029
0
0
0
12.26856
0
0
17.949781
77.962685
0
0
0
0
74.78312
0
0
0
0
0
0
261.0055
314.79574
378.8245
313.04082
0
23.150398
169.30447
0
0
91.740837
64.031608
193.49992
460.81071
0
0
0
0
0
0
0
0
0
0
0
0
0
0
0
0
0
0
0
0
0
0
0
0
0
0
0
0
0
0
0
0
27.855047
51.051766
47.828042
52.110208
28.187084
0
0
0
0
0
0
0
0
0
0
0
0
0
0
0
0
0
0
0
0
0
0
0
0
0
0
0
0
0
0
0
0
0
0
0
0
0
0
0
0
38.404984
0.10282442
3.5101525
39.534717
0.69836594
0
0
156.27473
366.6642
303.768
87.379409
276.31152
50.138227
0
0
0
0
0
0
0
0
0
0
0
0
0
0
0
106.68999
0
0
0
0
19.54701
0
0
0
19.569336
5.8654993
230.52027
269.78336
300.98841
302.69975
303.4272
238.33489
316.56392
214.54125
0
49.36786
51.313679
32.209235
125.63749
0
0
0
0
0
0
138.98416
0
0
221.8295
0
2.1312143
0
115.99761
46.466901
0
20.065787
22.443162
52.544475
36.261873
24.745768
6.3518683
0
12.76447
0
0
0
0
0
0
0
0
12.254345
0
58.256962
54.144727
13.235043
58.259031
138.21348
74.085413
0
0
0
0
59.364814
0
0
0
0
0
0
0
0
0
0
0
0
0
0
0
0
0
0
0
0
0
0
80.840957
192.5452
86.602789
190.46184
81.623155
370.48107
425.33208
424.87893
381.39667
401.14565
261.86907
202.0673
203.87482
309.81495
313.0377
153.32492
0
11.865727
84.320783
44.023898
58.6955
35.432694
35.440636
19.607904
140.15866
0
0
0
0
0
0
9.4222377
88.40155
47.479541
0
0
0
0
0
155.64551
175.44183
356.51438
433.74009
475.63773
431.59353
429.15349
527.49936
514.66523
101.1362
64.833777
0
76.378458
91.015469
239.64759
0
0
0
0
0
0
0
0
0
0
0
0
0
226.0989
0
0
0
78.841298
89.932211
218.44389
273.81673
362.36451
153.99948
0
124.88264
45.784268
0
0
0
0
38.494228
43.048643
106.25614
95.374692
266.68065
0
0
0
0
0
0
0
0
7.4645569
222.34141
107.27848
91.728246
193.49963
205.67723
262.01162
259.13037
142.4134
488.98432
0
0
7.4671642
0
105.84306
9.42545
0
142.38305
0
0
0
0
0
0
0
0
0
0
0
0
0
0
33.068807
0
0
34.398914
0
0
0
0
0
0
0
0
0
0
0
0
0
0
0
0
0
0
44.946896
16.03047
192.34396
0
12.497439
62.349128
9.7668589
11.104201
0
0
0
0
0
0
0
0
0
0
0
0
0
0
0
0
0
0
0
0
110.01484
107.28125
326.23772
143.56809
287.28481
31.573763
45.892423
25.92415
35.880266
153.41578
172.88797
116.73584
10.010482
184.67819
171.01925
0
0
104.22806
111.81052
278.32993
337.06641
365.64484
472.92814
191.02446
342.19485
342.95009
308.85891
176.04981
50.55845
136.07773
60.924585
0
0
0
0
0
0
0
0
299.02947
68.590921
129.52451
104.99492
15.412216
159.79081
241.9252
0
0
0
18.114689
0
0
119.35139
0
0
0
0
0
0
0
12.263578
12.258948
0
0
0
0
124.89521
94.263811
0
0
0
0
0
0
0
0
0
0
0
0
0
0
0
0
0
0
0
0
0
0
0
0
387.08757
0
68.690126
190.24063
232.09868
107.29179
192.00158
71.541435
266.78698
375.23341
376.52951
412.96359
308.33267
261.92697
259.02147
192.2031
309.80103
157.5328
142.39549
213.40558
234.68885
327.14099
58.712434
0.8602652
71.485144
4.8111252
0
0
0
44.693185
39.925105
0
7.3421218
61.64182
81.645516
118.12336
0
75.052628
58.217672
195.62669
35.752005
140.13931
0
0
0
0
147.83857
164.29395
207.66451
253.11538
207.67181
464.19842
564.81229
489.55486
0
219.99094
115.34895
138.20431
179.71394
0
0
0
83.346166
)


1333
(
536.2201
536.2201
25.727005
61.842295
105.00953
23.603224
155.8287
536.2201
536.2201
536.2201
29.43507
31.080711
105.00953
23.558691
29.43507
38.510557
61.842295
536.2201
61.842295
107.83376
32.41645
42.496287
25.704596
43.221649
28.266815
536.2201
536.2201
35.695774
31.934595
24.86236
19.673167
20.624067
107.83376
536.2201
536.2201
38.510557
40.553124
536.2201
116.86259
48.903434
42.496287
42.496287
31.934595
23.98938
23.98938
26.513685
26.513685
24.86236
20.624067
20.624067
61.842295
536.2201
306.11018
71.736122
25.704596
25.704596
25.704596
536.2201
40.553124
536.2201
25.284163
31.080711
56.212689
23.558691
23.558691
23.558691
28.672837
28.672837
29.43507
28.980596
28.980596
38.510557
20.624067
20.624067
31.934595
31.934595
31.934595
24.86236
24.86236
24.86236
78.119837
536.2201
536.2201
536.2201
536.2201
145.69781
38.510557
80.402351
40.553124
80.402351
91.271567
536.2201
116.86259
56.212689
172.44693
91.271567
31.934595
28.672837
28.672837
28.980596
28.980596
24.86236
536.2201
536.2201
536.2201
536.2201
536.2201
536.2201
536.2201
536.2201
163.76009
61.842295
536.2201
536.2201
107.83376
71.736122
71.736122
78.119837
157.56729
107.83376
536.2201
536.2201
536.2201
536.2201
536.2201
536.2201
145.69781
38.510557
78.119837
40.553124
40.553124
40.553124
72.79338
536.2201
536.2201
536.2201
48.903434
48.903434
48.903434
536.2201
536.2201
211.12967
157.56729
157.56729
78.119837
145.69781
536.2201
536.2201
145.69781
38.510557
80.402351
40.553124
80.402351
91.271567
536.2201
72.79338
73.654925
73.654925
91.271567
163.76009
31.080711
209.89605
25.727005
25.727005
25.727005
61.842295
61.842295
61.842295
105.00953
105.00953
105.00953
23.603224
23.603224
23.603224
155.8287
536.2201
155.8287
536.2201
536.2201
536.2201
29.43507
31.080711
29.43507
31.080711
31.080711
31.080711
209.89605
31.080711
105.00953
536.2201
536.2201
536.2201
32.41645
32.41645
32.41645
42.496287
42.496287
32.41645
43.221649
43.221649
43.221649
28.266815
28.266815
28.266815
536.2201
536.2201
536.2201
536.2201
536.2201
536.2201
35.695774
35.695774
35.695774
19.673167
19.673167
19.673167
536.2201
115.96498
116.86259
23.98938
28.672837
35.695774
25.284163
28.672837
23.98938
26.513685
26.513685
71.736122
26.513685
26.513685
26.513685
536.2201
306.11018
256.01867
71.736122
71.736122
71.736122
536.2201
536.2201
536.2201
536.2201
536.2201
211.12967
211.12967
211.12967
211.12967
25.284163
25.284163
25.284163
56.212689
31.080711
31.080711
536.2201
536.2201
536.2201
256.01867
282.7626
536.2201
536.2201
536.2201
536.2201
536.2201
536.2201
536.2201
536.2201
536.2201
172.44693
116.86259
115.96498
115.96498
73.654925
73.654925
56.212689
172.44693
73.654925
73.654925
536.2201
536.2201
536.2201
536.2201
536.2201
536.2201
536.2201
536.2201
536.2201
536.2201
536.2201
536.2201
536.2201
31.969496
28.733364
50.765998
73.334298
108.47478
58.557584
71.172621
86.20564
44.236538
51.876138
36.663588
24.156307
31.775282
27.086285
38.229685
33.034442
43.181346
39.615134
49.643418
30.44491
39.00175
46.686979
65.521957
69.949644
37.857121
99.277405
61.693385
153.37655
381.92334
381.92334
95.083838
381.92334
381.92334
93.64569
36.669451
57.688642
59.214261
35.010069
38.67507
31.716584
21.854348
30.265901
23.120693
33.407175
31.764973
33.125143
26.031869
35.844836
24.508868
381.92334
381.92334
381.92334
381.92334
381.92334
381.92334
381.92334
381.92334
381.92334
381.92334
381.92334
381.92334
381.92334
381.92334
381.92334
112.79189
125.11409
381.92334
381.92334
381.92334
381.92334
381.92334
381.92334
381.92334
107.77239
75.169315
78.872522
381.92334
381.92334
100.98018
381.92334
381.92334
381.92334
381.92334
381.92334
381.92334
381.92334
381.92334
381.92334
381.92334
381.92334
381.92334
381.92334
381.92334
125.1063
381.92334
381.92334
381.92334
381.92334
381.92334
381.92334
381.92334
381.92334
381.92334
381.92334
381.92334
381.92334
381.92334
381.92334
381.92334
381.92334
381.92334
381.92334
381.92334
381.92334
381.92334
381.92334
381.92334
161.40753
381.92334
381.92334
128.68043
381.92334
381.92334
381.92334
102.20213
136.07944
94.198392
90.328697
71.803729
381.92334
381.92334
381.92334
381.92334
381.92334
381.92334
381.92334
381.92334
381.92334
381.92334
381.92334
381.92334
381.92334
381.92334
381.92334
381.92334
381.92334
381.92334
381.92334
381.92334
381.92334
381.92334
381.92334
381.92334
381.92334
381.92334
381.92334
381.92334
381.92334
381.92334
381.92334
381.92334
381.92334
381.92334
381.92334
381.92334
381.92334
381.92334
381.92334
381.92334
381.92334
381.92334
381.92334
381.92334
381.92334
381.92334
381.92334
381.92334
381.92334
77.32244
57.228808
381.92334
381.92334
381.92334
381.92334
381.92334
381.92334
381.92334
381.92334
130.00079
104.98904
89.210987
111.89232
381.92334
381.92334
381.92334
381.92334
381.92334
381.92334
381.92334
381.92334
381.92334
381.92334
381.92334
381.92334
381.92334
381.92334
381.92334
381.92334
381.92334
381.92334
381.92334
381.92334
381.92334
381.92334
381.92334
381.92334
381.92334
381.92334
381.92334
381.92334
381.92334
381.92334
381.92334
381.92334
147.54836
91.899961
107.41016
128.71041
57.479508
49.535595
36.774472
42.669928
76.781368
57.862147
46.004315
381.92334
381.92334
381.92334
381.92334
381.92334
381.92334
74.121979
116.37201
381.92334
381.92334
47.625632
40.934057
36.432495
38.689139
381.92334
381.92334
381.92334
381.92334
381.92334
381.92334
381.92334
381.92334
381.92334
381.92334
381.92334
381.92334
381.92334
381.92334
381.92334
381.92334
381.92334
381.92334
381.92334
381.92334
381.92334
381.92334
381.92334
381.92334
381.92334
381.92334
381.92334
381.92334
381.92334
381.92334
381.92334
381.92334
381.92334
381.92334
381.92334
381.92334
381.92334
381.92334
381.92334
381.92334
381.92334
381.92334
381.92334
381.92334
381.92334
381.92334
381.92334
381.92334
381.92334
381.92334
381.92334
381.92334
381.92334
381.92334
381.92334
381.92334
381.92334
381.92334
381.92334
381.92334
381.92334
381.92334
381.92334
381.92334
81.350364
115.61551
381.92334
381.92334
381.92334
381.92334
381.92334
381.92334
381.92334
381.92334
381.92334
381.92334
381.92334
381.92334
381.92334
381.92334
381.92334
381.92334
381.92334
381.92334
381.92334
381.92334
381.92334
68.316738
84.042515
58.601249
71.919505
43.236593
50.291144
61.406759
54.809444
381.92334
381.92334
381.92334
381.92334
381.92334
381.92334
381.92334
381.92334
64.750758
52.256485
72.537728
95.503826
45.169569
48.673392
66.503076
60.292674
97.032503
146.70427
381.92334
134.35987
381.92334
381.92334
381.92334
381.92334
381.92334
381.92334
381.92334
381.92334
381.92334
381.92334
381.92334
381.92334
381.92334
381.92334
381.92334
381.92334
381.92334
381.92334
381.92334
381.92334
381.92334
381.92334
381.92334
381.92334
381.92334
381.92334
381.92334
381.92334
381.92334
381.92334
381.92334
381.92334
381.92334
381.92334
381.92334
381.92334
381.92334
381.92334
381.92334
381.92334
381.92334
381.92334
381.92334
381.92334
381.92334
381.92334
381.92334
381.92334
381.92334
381.92334
381.92334
381.92334
381.92334
381.92334
381.92334
381.92334
0
0
0
0
0
0
0
0
0
0
0
0
0
0
0
0
0
0
0
0
0
0
0
0
0
0
0
180.85327
0
0
0
1.7834993
293.84199
0
0
0
0
18.687475
0
0
0
0
0
0
0
0
0
0
0
0
0
0
0
87.798321
0
6.8911547
0
0
0
0
0
84.562772
0
0
2.7395242
112.16801
0
0
117.52113
113.11353
0
0
0
110.86525
202.45035
0
0
0
0
0
2.7449991
145.90074
343.67677
347.14244
342.23357
0
41.422484
231.49312
0
0
159.5035
125.64979
232.80337
398.72608
0
0
0
0
0
0
0
0
0
0
0
0
0
0
0
0
0
0
0
0
0
0
0
0
0
0
0
0
0
0
0
0
0
0
0
0
0
0
0
0
0
0
0
0
0
0
0
0
0
0
0
0
0
0
0
0
0
0
0
0
0
0
0
0
0
0
0
0
0
0
0
0
0
0
0
0
0
0
0
0
0
0
0
0
0
228.44758
173.76414
0
133.21029
0
0
0
0
0
0
0
0
0
0
0
0
0
0
0
0
55.359021
0
0
0
0
40.191073
0
0
0
40.106301
0
116.39983
180.48459
212.93501
226.4209
230.64339
126.10087
241.54372
291.53057
0
0
0
0
0
0
0
0
0
0
0
0
0
0
100.21571
0
0
0
8.6519573
0
0
0
0
0
0
0
0
0
13.501438
0
0
0
0
0
0
0
11.860877
112.15347
4.7735581
103.03789
102.38091
112.48686
103.04198
222.88079
131.86699
0
0
0
100.50948
182.16517
0
0
0
0
0
0
0
0
0
0
0
0
0
0
0
0
0
0
0
0
0
0
21.130408
125.74331
49.172981
121.34069
20.831834
341.66743
442.50394
442.34035
365.71833
382.78792
241.59651
237.09527
242.41319
335.68223
342.22937
142.20609
0
48.397467
151.85775
90.898343
104.50198
70.160701
70.168483
54.301472
189.70281
0
0
0
0
0
0