/*--------------------------------*- C++ -*----------------------------------*\
  =========                 |
  \\      /  F ield         | OpenFOAM: The Open Source CFD Toolbox
   \\    /   O peration     | Website:  https://openfoam.org
    \\  /    A nd           | Version:  8
     \\/     M anipulation  |
\*---------------------------------------------------------------------------*/
/*   Windows 32 and 64 bit porting by blueCAPE: http://www.bluecape.com.pt   *\
|  Based on Windows porting (2.0.x v4) by Symscape: http://www.symscape.com   |
\*---------------------------------------------------------------------------*/
FoamFile
{
    version     2.0;
    format      ascii;
    class       scalarListList;
    location    "constant/vegetation";
    object      sunViewCoeff;
}
// * * * * * * * * * * * * * * * * * * * * * * * * * * * * * * * * * * * * * //


5
(

493
(
65.539595
593.20806
717.08284
717.08284
717.08284
717.08284
717.08284
717.08284
26.513795
259.96085
494.96214
44.342615
188.53445
717.08284
717.08284
717.08284
717.08284
717.08284
717.08284
717.08284
175.53334
48.52426
32.269631
43.728702
507.53604
86.972647
300.92913
25.607643
63.464892
22.343563
65.89817
174.35215
717.08284
717.08284
526.04906
663.10193
38.625836
30.403744
29.710053
55.653745
66.19963
717.08284
717.08284
717.08284
26.495947
23.520199
36.93269
634.69179
717.08284
540.7712
102.33422
717.08284
585.05182
28.016633
717.08284
24.011387
717.08284
37.815114
582.72394
0
80.639504
79.440084
80.639504
80.639504
80.639504
80.639504
80.639504
80.639504
80.639504
80.639504
80.639504
80.639504
80.639504
80.639504
80.639504
80.639504
80.639504
80.639504
80.639504
80.639504
80.639504
80.639504
80.639504
80.639504
80.639504
80.639504
80.639504
80.639504
80.639504
80.639504
80.639504
80.639504
80.639504
80.639504
80.639504
80.639504
80.639504
80.639504
80.639504
80.639504
80.639504
80.639504
80.639504
80.639504
80.639504
80.639504
80.639504
80.639504
80.639504
80.639504
80.639504
80.639504
80.639504
80.639504
80.639504
80.639504
80.639504
80.639504
80.639504
80.639504
80.639504
80.639504
80.639504
80.639504
80.639504
80.639504
80.639504
80.639504
80.639504
80.639504
80.639504
80.639504
80.639504
80.639504
80.639504
80.639504
80.639504
80.639504
80.639504
80.639504
80.639504
80.639504
80.639504
80.639504
80.639504
80.639504
80.639504
80.639504
80.639504
80.639504
80.639504
80.639504
80.639504
80.639504
80.639504
80.639504
80.639504
80.639504
80.639504
80.639504
80.639504
80.639504
80.639504
80.639504
80.639504
80.639504
80.639504
80.639504
80.639504
80.639504
80.639504
80.639504
80.639504
80.639504
80.639504
80.639504
80.639504
80.639504
80.639504
80.639504
80.639504
80.639504
80.639504
80.639504
80.639504
80.639504
80.639504
80.639504
80.639504
80.639504
80.639504
80.639504
80.639504
80.639504
80.639504
80.639504
80.639504
80.639504
80.639504
80.639504
80.639504
80.639504
80.639504
80.639504
80.639504
80.639504
80.639504
80.639504
80.639504
80.639504
80.639504
80.639504
80.639504
80.639504
80.639504
80.639504
80.639504
80.639504
80.639504
80.639504
80.639504
80.639504
80.639504
80.639504
80.639504
80.639504
80.639504
80.639504
80.639504
80.639504
80.639504
80.639504
80.639504
80.639504
80.639504
80.639504
80.639504
80.639504
80.639504
80.639504
80.639504
80.639504
80.639504
80.639504
80.639504
80.639504
80.639504
80.639504
80.639504
80.639504
80.639504
80.639504
80.639504
80.639504
80.639504
80.639504
80.639504
80.639504
80.639504
80.639504
80.639504
80.639504
80.639504
80.639504
80.639504
80.639504
80.639504
80.639504
80.639504
80.639504
80.639504
80.639504
80.639504
80.639504
80.639504
80.639504
80.639504
80.639504
80.639504
80.639504
80.639504
80.639504
80.639504
80.639504
80.639504
80.639504
80.639504
80.639504
80.639504
80.639504
80.639504
80.639504
80.639504
80.639504
80.639504
80.639504
80.639504
80.639504
80.639504
80.639504
80.639504
80.639504
80.639504
80.639504
80.639504
80.639504
80.639504
80.639504
80.639504
80.639504
80.639504
80.639504
80.639504
80.639504
80.639504
80.639504
80.639504
80.639504
80.639504
80.639504
80.639504
80.639504
80.639504
80.639504
80.639504
80.639504
80.639504
80.639504
80.639504
80.639504
80.639504
80.639504
80.639504
80.639504
80.639504
80.639504
80.639504
80.639504
80.639504
80.639504
80.639504
80.639504
80.639504
80.639504
80.639504
80.639504
80.639504
80.639504
80.639504
80.639504
80.639504
80.639504
80.639504
80.639504
80.639504
80.639504
80.639504
80.639504
80.639504
80.639504
80.639504
80.639504
80.639504
80.639504
80.639504
80.639504
80.639504
80.639504
80.639504
80.639504
80.639504
80.639504
80.639504
80.639504
80.639504
80.639504
80.639504
80.639504
80.639504
80.639504
80.639504
80.639504
80.639504
80.639504
80.639504
80.639504
80.639504
80.639504
80.639504
80.639504
80.639504
80.639504
80.639504
80.639504
80.639504
80.639504
80.639504
80.639504
80.639504
80.639504
80.639504
80.639504
80.639504
80.639504
80.639504
80.639504
80.639504
80.639504
80.639504
80.639504
80.639504
80.639504
80.639504
80.639504
80.639504
80.639504
80.639504
80.639504
80.639504
80.639504
80.639504
80.639504
80.639504
80.639504
80.639504
80.639504
80.639504
80.639504
80.639504
80.639504
80.639504
80.639504
80.639504
80.639504
80.639504
80.639504
80.639504
80.639504
80.639504
80.639504
80.639504
80.639504
80.639504
80.639504
80.639504
80.639504
80.639504
80.639504
80.639504
80.639504
80.639504
80.639504
80.639504
80.639504
80.639504
80.639504
80.639504
80.639504
80.639504
80.639504
80.639504
80.639504
80.639504
80.639504
80.639504
80.639504
80.639504
80.639504
80.639504
80.639504
80.639504
80.639504
80.639504
80.639504
80.639504
80.639504
80.639504
80.639504
80.639504
80.639504
350.36091
0
0
0
18.566602
84.575438
57.262531
0.53890258
112.38649
14.604854
540.22566
0
0
)


493
(
59.961528
585.76158
102.95607
426.56095
326.36161
72.156441
585.76158
585.76158
18.371875
29.605796
43.904681
30.507189
96.287504
331.46732
295.58131
260.15777
90.888752
75.077165
585.76158
585.76158
50.952134
29.377532
20.155739
16.394242
32.603618
165.1552
567.15391
24.591065
494.44178
20.802772
26.871476
33.451916
403.37037
585.76158
95.178659
585.76158
20.705829
26.767815
19.821525
29.168567
76.794379
585.76158
585.76158
585.76158
41.524161
37.747621
68.404243
222.65873
585.76158
585.76158
148.29405
585.76158
585.76158
71.743751
585.76158
27.925701
585.76158
113.89353
496.32596
0
227.80796
226.83494
227.80796
227.80796
227.80796
227.80796
227.80796
227.80796
227.80796
227.80796
227.80796
227.80796
227.80796
227.80796
227.80796
227.80796
227.80796
227.80796
227.80796
227.80796
227.80796
227.80796
227.80796
227.80796
227.80796
227.80796
227.80796
227.80796
227.80796
227.80796
227.80796
227.80796
227.80796
227.80796
227.80796
227.80796
227.80796
227.80796
227.80796
227.80796
68.326848
227.80796
67.553183
227.80796
227.80796
227.80796
227.80796
227.80796
71.652223
227.80796
227.80796
227.80796
227.80796
227.80796
227.80796
227.80796
227.80796
227.80796
227.80796
227.80796
227.80796
227.80796
227.80796
227.80796
227.80796
227.80796
227.80796
227.80796
227.80796
227.80796
227.80796
227.80796
227.80796
227.80796
227.80796
227.80796
227.80796
227.80796
227.80796
227.80796
227.80796
227.80796
227.80796
227.80796
227.80796
227.80796
227.80796
227.80796
227.80796
227.80796
227.80796
227.80796
227.80796
227.80796
227.80796
227.80796
227.80796
227.80796
227.80796
227.80796
227.80796
227.80796
227.80796
227.80796
227.80796
227.80796
227.80796
227.80796
227.80796
227.80796
227.80796
227.80796
227.80796
227.80796
227.80796
227.80796
227.80796
227.80796
227.80796
227.80796
227.80796
227.80796
227.80796
227.80796
227.80796
227.80796
227.80796
227.80796
227.80796
227.80796
227.80796
227.80796
227.80796
227.80796
227.80796
227.80796
227.80796
227.80796
227.80796
227.80796
227.80796
227.80796
227.80796
227.80796
227.80796
227.80796
227.80796
227.80796
227.80796
227.80796
227.80796
227.80796
227.80796
227.80796
227.80796
227.80796
227.80796
227.80796
227.80796
227.80796
227.80796
227.80796
227.80796
227.80796
227.80796
227.80796
227.80796
227.80796
227.80796
227.80796
227.80796
227.80796
227.80796
227.80796
227.80796
227.80796
227.80796
227.80796
227.80796
227.80796
227.80796
227.80796
227.80796
227.80796
227.80796
227.80796
227.80796
227.80796
227.80796
227.80796
227.80796
227.80796
227.80796
227.80796
227.80796
227.80796
227.80796
227.80796
227.80796
227.80796
227.80796
227.80796
227.80796
227.80796
227.80796
227.80796
227.80796
227.80796
227.80796
227.80796
227.80796
227.80796
227.80796
227.80796
227.80796
227.80796
227.80796
227.80796
227.80796
227.80796
227.80796
227.80796
227.80796
227.80796
227.80796
227.80796
227.80796
227.80796
227.80796
227.80796
227.80796
227.80796
227.80796
227.80796
227.80796
227.80796
227.80796
227.80796
227.80796
227.80796
227.80796
227.80796
227.80796
227.80796
227.80796
227.80796
227.80796
227.80796
227.80796
227.80796
227.80796
227.80796
227.80796
227.80796
227.80796
227.80796
227.80796
227.80796
227.80796
227.80796
227.80796
227.80796
227.80796
227.80796
227.80796
227.80796
227.80796
227.80796
227.80796
227.80796
227.80796
227.80796
227.80796
227.80796
227.80796
227.80796
227.80796
227.80796
227.80796
227.80796
227.80796
227.80796
227.80796
227.80796
227.80796
227.80796
227.80796
227.80796
227.80796
227.80796
227.80796
227.80796
227.80796
227.80796
227.80796
227.80796
227.80796
227.80796
227.80796
227.80796
227.80796
227.80796
227.80796
227.80796
227.80796
227.80796
227.80796
227.80796
227.80796
227.80796
227.80796
227.80796
227.80796
227.80796
227.80796
227.80796
227.80796
227.80796
227.80796
227.80796
227.80796
227.80796
227.80796
227.80796
227.80796
227.80796
227.80796
227.80796
227.80796
227.80796
227.80796
227.80796
227.80796
227.80796
227.80796
227.80796
227.80796
227.80796
227.80796
227.80796
227.80796
227.80796
227.80796
227.80796
227.80796
227.80796
227.80796
227.80796
227.80796
227.80796
227.80796
227.80796
227.80796
227.80796
227.80796
227.80796
227.80796
227.80796
227.80796
227.80796
227.80796
227.80796
227.80796
227.80796
227.80796
227.80796
227.80796
227.80796
227.80796
227.80796
227.80796
227.80796
227.80796
227.80796
227.80796
227.80796
227.80796
227.80796
227.80796
227.80796
227.80796
227.80796
227.80796
227.80796
227.80796
227.80796
227.80796
227.80796
227.80796
227.80796
227.80796
227.80796
227.80796
227.80796
227.80796
227.80796
227.80796
227.80796
227.80796
227.80796
227.80796
227.80796
227.80796
227.80796
227.80796
227.80796
227.80796
227.80796
227.80796
227.80796
227.80796
227.80796
227.80796
227.80796
227.80796
227.80796
227.80796
227.80796
227.80796
227.80796
137.08197
0
0
0
0
13.530842
23.410488
37.437443
115.80948
30.50752
419.90787
0
0
)


493
(
350.41146
536.2201
25.727005
61.842295
213.81498
23.603224
246.18118
536.2201
29.43507
31.080711
23.558691
38.510557
107.83376
32.41645
42.496287
25.704596
43.221649
28.266815
536.2201
536.2201
35.695774
31.934595
24.86236
19.673167
20.624067
277.49183
536.2201
40.553124
328.21921
48.903434
23.98938
26.513685
395.31045
421.42046
71.736122
369.42978
25.284163
56.212689
28.672837
28.980596
78.119837
536.2201
536.2201
536.2201
80.402351
91.271567
445.80055
373.19927
536.2201
536.2201
251.43646
536.2201
536.2201
276.51809
536.2201
73.654925
536.2201
284.55962
472.14675
0
31.969496
28.733364
50.765998
73.334298
108.47478
58.557584
71.172621
86.20564
44.236538
51.876138
36.663588
24.156307
31.775282
27.086285
38.229685
33.034442
43.181346
39.615134
49.643418
30.44491
39.00175
46.686979
65.521957
69.949644
37.857121
99.277405
61.693385
153.37655
381.92334
381.92334
95.083838
381.92334
381.92334
93.64569
36.669451
57.688642
59.214261
35.010069
38.67507
31.716584
21.854348
30.265901
23.120693
33.407175
31.764973
33.125143
26.031869
35.844836
24.508868
381.92334
381.92334
381.92334
381.92334
381.92334
381.92334
381.92334
381.92334
381.92334
381.92334
381.92334
381.92334
381.92334
381.92334
381.92334
112.79189
125.11409
381.92334
381.92334
381.92334
381.92334
381.92334
381.92334
381.92334
107.77239
75.169315
78.872522
381.92334
381.92334
100.98018
381.92334
381.92334
381.92334
381.92334
381.92334
381.92334
381.92334
381.92334
381.92334
381.92334
381.92334
381.92334
381.92334
381.92334
125.1063
381.92334
381.92334
381.92334
381.92334
381.92334
381.92334
381.92334
381.92334
381.92334
381.92334
381.92334
381.92334
381.92334
381.92334
381.92334
381.92334
381.92334
381.92334
381.92334
381.92334
381.92334
381.92334
381.92334
161.40753
381.92334
381.92334
128.68043
381.92334
381.92334
381.92334
102.20213
136.07944
94.198392
90.328697
71.803729
381.92334
381.92334
381.92334
381.92334
381.92334
381.92334
381.92334
381.92334
381.92334
381.92334
381.92334
381.92334
381.92334
381.92334
381.92334
381.92334
381.92334
381.92334
381.92334
381.92334
381.92334
381.92334
381.92334
381.92334
381.92334
381.92334
381.92334
381.92334
381.92334
381.92334
381.92334
381.92334
381.92334
381.92334
381.92334
381.92334
381.92334
381.92334
381.92334
381.92334
381.92334
381.92334
381.92334
381.92334
381.92334
381.92334
381.92334
381.92334
381.92334
77.32244
57.228808
381.92334
381.92334
381.92334
381.92334
381.92334
381.92334
381.92334
381.92334
130.00079
104.98904
89.210987
111.89232
381.92334
381.92334
381.92334
381.92334
381.92334
381.92334
381.92334
381.92334
381.92334
381.92334
381.92334
381.92334
381.92334
381.92334
381.92334
381.92334
381.92334
381.92334
381.92334
381.92334
381.92334
381.92334
381.92334
381.92334
381.92334
381.92334
381.92334
381.92334
381.92334
381.92334
381.92334
381.92334
147.54836
91.899961
107.41016
128.71041
57.479508
49.535595
36.774472
42.669928
76.781368
57.862147
46.004315
381.92334
381.92334
381.92334
381.92334
381.92334
381.92334
74.121979
116.37201
381.92334
381.92334
47.625632
40.934057
36.432495
38.689139
381.92334
381.92334
381.92334
381.92334
381.92334
381.92334
381.92334
381.92334
381.92334
381.92334
381.92334
381.92334
381.92334
381.92334
381.92334
381.92334
381.92334
381.92334
381.92334
381.92334
381.92334
381.92334
381.92334
381.92334
381.92334
381.92334
381.92334
381.92334
381.92334
381.92334
381.92334
381.92334
381.92334
381.92334
381.92334
381.92334
381.92334
381.92334
381.92334
381.92334
381.92334
381.92334
381.92334
381.92334
381.92334
381.92334
381.92334
381.92334
381.92334
381.92334
381.92334
381.92334
381.92334
381.92334
381.92334
381.92334
381.92334
381.92334
381.92334
381.92334
381.92334
381.92334
381.92334
381.92334
81.350364
115.61551
381.92334
381.92334
381.92334
381.92334
381.92334
381.92334
381.92334
381.92334
381.92334
381.92334
381.92334
381.92334
381.92334
381.92334
381.92334
381.92334
381.92334
381.92334
381.92334
381.92334
381.92334
68.316738
84.042515
58.601249
71.919505
43.236593
50.291144
61.406759
54.809444
381.92334
381.92334
381.92334
381.92334
381.92334
381.92334
381.92334
381.92334
64.750758
52.256485
72.537728
95.503826
45.169569
48.673392
66.503076
60.292674
97.032503
146.70427
381.92334
134.35987
381.92334
381.92334
381.92334
381.92334
381.92334
381.92334
381.92334
381.92334
381.92334
381.92334
381.92334
381.92334
381.92334
381.92334
381.92334
381.92334
381.92334
381.92334
381.92334
381.92334
381.92334
381.92334
381.92334
381.92334
381.92334
381.92334
381.92334
381.92334
381.92334
381.92334
381.92334
381.92334
381.92334
381.92334
381.92334
381.92334
381.92334
381.92334
381.92334
381.92334
381.92334
381.92334
381.92334
381.92334
381.92334
381.92334
381.92334
381.92334
381.92334
381.92334
381.92334
381.92334
381.92334
381.92334
381.92334
381.92334
8.8914474
26.619712
0
0
0
15.95036
33.05036
0
116.23687
20.954319
350.40891
0
47.186049
)


493
(
356.8787
411.8157
23.379377
27.619651
357.74984
27.442103
41.355136
411.8157
11.943143
86.189602
20.099998
10.293659
43.625364
21.969524
24.578066
16.410655
81.504434
36.146182
129.37096
411.8157
22.42146
14.748912
9.5333552
13.855504
17.753753
26.360427
411.8157
8.717651
0
12.32992
14.803466
18.675306
293.09126
354.52536
34.795004
0
19.386746
29.48387
11.129804
13.560764
24.589859
411.8157
397.00552
411.8157
9.3392078
13.838988
54.412213
411.8157
411.8157
411.8157
53.916838
0
240.13642
15.015376
0
14.25493
285.25318
36.233341
411.8157
0
23.224936
22.987813
29.569893
34.308555
41.209649
26.394879
28.923457
35.793519
27.055398
28.216616
25.313899
22.215891
26.061602
21.660026
25.900908
26.632257
26.606396
23.34511
27.575165
22.459634
24.869027
28.386141
30.962452
33.528463
26.983801
168.74168
102.76858
471.50949
471.50949
471.50949
471.50949
471.50949
471.50949
164.69812
84.43306
100.63059
133.83098
37.927776
62.484157
31.323309
25.523812
28.523772
29.267528
31.642585
28.985547
37.373199
53.149077
61.372069
33.494865
471.50949
471.50949
471.50949
471.50949
471.50949
471.50949
471.50949
471.50949
471.50949
471.50949
471.50949
471.50949
126.23206
219.2462
73.477595
41.214046
42.069522
68.636635
72.819912
41.775633
116.59926
187.66212
217.98311
114.30785
40.725919
30.001862
41.930871
58.001817
471.50949
45.887545
471.50949
471.50949
471.50949
471.50949
471.50949
471.50949
471.50949
471.50949
65.881972
471.50949
471.50949
471.50949
80.21196
95.233563
41.122727
59.480589
51.620761
46.211188
134.10452
140.57903
112.60185
471.50949
85.976107
471.50949
80.078206
76.258725
97.215351
64.485064
471.50949
471.50949
471.50949
471.50949
471.50949
471.50949
471.50949
471.50949
471.50949
471.50949
56.872831
57.8608
53.378665
45.158383
67.325437
67.484256
60.460123
36.749556
45.893598
36.363049
37.826758
33.533889
40.540401
471.50949
100.32587
62.96383
78.058585
84.508805
72.440862
57.550276
113.32394
471.50949
137.10875
167.09171
471.50949
471.50949
471.50949
471.50949
471.50949
471.50949
471.50949
471.50949
90.325601
118.19356
471.50949
125.19481
471.50949
471.50949
471.50949
471.50949
471.50949
471.50949
471.50949
471.50949
471.50949
471.50949
471.50949
471.50949
471.50949
68.650364
52.005882
85.616938
102.51913
471.50949
471.50949
471.50949
471.50949
471.50949
471.50949
471.50949
471.50949
35.711502
31.23985
131.48705
173.00104
471.50949
471.50949
471.50949
471.50949
471.50949
471.50949
49.530074
42.659997
40.42718
45.92601
57.37587
76.755775
69.595348
51.927932
471.50949
471.50949
471.50949
471.50949
156.32543
471.50949
471.50949
471.50949
42.492638
45.08772
76.470927
78.720069
471.50949
471.50949
471.50949
471.50949
471.50949
471.50949
471.50949
471.50949
471.50949
471.50949
471.50949
471.50949
471.50949
471.50949
471.50949
471.50949
49.707237
33.873267
38.253285
45.000402
29.931027
28.741473
28.289795
27.56855
32.428583
29.478127
26.929548
471.50949
471.50949
132.99646
164.60937
117.76736
471.50949
109.0785
180.6731
471.50949
471.50949
65.742608
39.558818
30.27894
32.508667
104.84287
159.12789
471.50949
471.50949
471.50949
471.50949
471.50949
471.50949
229.94332
130.79631
42.080276
74.351462
471.50949
471.50949
471.50949
471.50949
471.50949
471.50949
471.50949
471.50949
471.50949
471.50949
471.50949
471.50949
471.50949
471.50949
471.50949
471.50949
471.50949
471.50949
471.50949
471.50949
471.50949
471.50949
471.50949
471.50949
471.50949
471.50949
471.50949
471.50949
471.50949
471.50949
471.50949
471.50949
471.50949
471.50949
471.50949
471.50949
471.50949
471.50949
471.50949
471.50949
471.50949
471.50949
471.50949
471.50949
471.50949
471.50949
471.50949
471.50949
471.50949
471.50949
471.50949
471.50949
31.224412
42.412695
471.50949
471.50949
471.50949
471.50949
471.50949
471.50949
471.50949
471.50949
471.50949
471.50949
471.50949
471.50949
471.50949
471.50949
471.50949
471.50949
471.50949
471.50949
471.50949
471.50949
471.50949
32.677381
36.747722
31.489049
35.477707
30.914757
30.320851
34.081218
34.750096
153.0933
108.22596
98.084949
142.36948
471.50949
471.50949
471.50949
471.50949
71.225025
42.287703
46.717715
80.937709
32.259712
33.757095
36.043792
35.408834
119.75225
199.72494
471.50949
134.89421
471.50949
471.50949
471.50949
471.50949
471.50949
137.6172
145.54034
471.50949
471.50949
471.50949
471.50949
471.50949
471.50949
471.50949
471.50949
471.50949
471.50949
471.50949
471.50949
471.50949
471.50949
471.50949
471.50949
471.50949
471.50949
471.50949
471.50949
471.50949
471.50949
471.50949
471.50949
471.50949
471.50949
471.50949
471.50949
471.50949
471.50949
471.50949
471.50949
471.50949
471.50949
471.50949
471.50949
471.50949
471.50949
471.50949
471.50949
471.50949
471.50949
471.50949
471.50949
471.50949
471.50949
471.50949
471.50949
471.50949
22.269843
19.937586
0
0
0
30.690766
8.8631082
0
83.620383
3.6551658
217.46705
0
12.097602
)


493
(
0
0
0
0
0
0
0
0
0
0
0
0
0
0
0
0
0
0
0
0
0
0
0
0
0
0
0
0
0
0
0
0
0
0
0
0
0
0
0
0
0
0
0
0
0
0
0
0
0
0
0
0
0
0
0
0
0
0
0
0
5.5796863
0
8.8522888
10.267211
9.3610882
5.9252919
10.211139
5.4233931
12.252802
11.288209
13.926441
10.584056
16.502565
8.7405267
14.558173
17.258401
11.396409
6.3894906
10.684722
7.204083
7.9885139
7.7535434
5.5946873
9.4161542
4.7373691
524.72754
524.72754
524.72754
524.72754
524.72754
524.72754
524.72754
524.72754
524.72754
524.72754
524.72754
524.72754
77.999003
151.57379
39.118122
13.308325
19.692661
31.421308
40.042454
20.51353
77.561002
173.90993
153.39501
74.009736
198.50528
93.878261
524.72754
524.72754
524.72754
524.72754
524.72754
524.72754
203.12939
93.57354
94.278564
250.53
21.059106
44.512157
14.170877
7.0044317
11.805238
8.6584009
14.869274
12.501456
18.330011
35.045326
44.282668
13.140748
10.156211
10.819227
42.610421
52.141832
524.72754
64.752282
524.72754
524.72754
524.72754
524.72754
524.72754
524.72754
524.72754
524.72754
72.640822
524.72754
524.72754
524.72754
30.101324
38.900988
26.084875
36.54641
33.505203
28.561254
73.539652
53.572456
45.662598
140.49689
142.78308
524.72754
47.394465
42.277146
48.80477
39.843551
202.14694
524.72754
524.72754
524.72754
239.41774
524.72754
524.72754
524.72754
524.72754
524.72754
13.392366
26.682431
34.938297
26.961835
34.695106
23.042228
17.845972
26.608559
34.005118
19.386944
15.909419
14.626667
21.094808
190.4605
47.415854
40.73827
40.548888
47.531044
48.174997
40.472918
56.974098
74.119062
58.5396
69.25615
119.96938
94.197425
135.89477
84.006086
219.6463
524.72754
524.72754
524.72754
46.422203
51.20677
53.736751
50.940004
524.72754
74.11486
126.20052
69.811046
135.94676
82.808942
61.396544
64.253002
92.228044
88.7486
524.72754
159.13623
125.82658
41.994214
33.285576
38.668192
48.179752
524.72754
524.72754
524.72754
524.72754
524.72754
524.72754
524.72754
524.72754
12.404956
11.15852
207.99707
100.98617
524.72754
524.72754
524.72754
524.72754
524.72754
524.72754
35.208828
27.299054
29.11064
37.31214
40.934038
47.648872
48.876531
42.447654
524.72754
192.23419
524.72754
524.72754
52.903725
113.63098
93.767888
65.728075
18.568919
24.563911
21.523011
28.486721
112.30957
163.38125
524.72754
133.40258
524.72754
524.72754
524.72754
524.72754
221.75871
524.72754
250.45864
524.72754
524.72754
524.72754
524.72754
524.72754
20.331621
16.076782
20.598873
15.790439
13.144461
14.097951
19.60862
16.633144
19.857577
14.904485
10.925919
86.82503
115.74298
56.067165
69.833312
56.161538
69.593596
524.72754
524.72754
524.72754
524.72754
146.71335
79.331268
23.112272
42.792932
59.190837
75.329781
136.80693
95.666611
93.642454
185.71617
524.72754
524.72754
47.215496
23.812267
14.700555
17.17453
524.72754
524.72754
524.72754
524.72754
524.72754
524.72754
524.72754
524.72754
524.72754
524.72754
524.72754
524.72754
524.72754
524.72754
524.72754
524.72754
524.72754
524.72754
524.72754
524.72754
524.72754
524.72754
524.72754
524.72754
524.72754
524.72754
524.72754
524.72754
524.72754
524.72754
524.72754
524.72754
524.72754
524.72754
524.72754
524.72754
524.72754
524.72754
524.72754
524.72754
524.72754
524.72754
524.72754
524.72754
524.72754
524.72754
524.72754
524.72754
524.72754
524.72754
524.72754
524.72754
12.783782
12.287581
524.72754
524.72754
524.72754
524.72754
524.72754
524.72754
524.72754
524.72754
524.72754
524.72754
524.72754
524.72754
524.72754
524.72754
524.72754
524.72754
524.72754
524.72754
524.72754
524.72754
524.72754
16.324605
20.890367
17.343402
22.547905
23.91059
20.366155
26.277347
31.218568
70.084857
56.259508
56.947828
72.601512
87.290178
116.89636
123.58057
90.675477
147.35761
84.583089
95.246289
158.53847
28.063757
48.485954
59.318875
36.40381
524.72754
524.72754
524.72754
524.72754
524.72754
524.72754
524.72754
524.72754
55.905426
29.624619
39.256002
74.060539
105.04933
194.91934
231.23353
131.67845
524.72754
524.72754
524.72754
524.72754
524.72754
524.72754
524.72754
524.72754
524.72754
524.72754
524.72754
524.72754
524.72754
524.72754
524.72754
524.72754
524.72754
524.72754
524.72754
524.72754
524.72754
524.72754
524.72754
524.72754
524.72754
524.72754
524.72754
524.72754
524.72754
524.72754
524.72754
524.72754
524.72754
524.72754
524.72754
524.72754
524.72754
524.72754
524.72754
524.72754
524.72754
524.72754
524.72754
524.72754
0
0
0
0
0
34.793635
0
0
34.326811
46.07033
78.583622
0
17.200786
)

)


// ************************************************************************* //
