/*--------------------------------*- C++ -*----------------------------------*\
  =========                 |
  \\      /  F ield         | OpenFOAM: The Open Source CFD Toolbox
   \\    /   O peration     | Website:  https://openfoam.org
    \\  /    A nd           | Version:  8
     \\/     M anipulation  |
\*---------------------------------------------------------------------------*/
/*   Windows 32 and 64 bit porting by blueCAPE: http://www.bluecape.com.pt   *\
|  Based on Windows porting (2.0.x v4) by Symscape: http://www.symscape.com   |
\*---------------------------------------------------------------------------*/
FoamFile
{
    version     2.0;
    format      ascii;
    class       scalarListList;
    location    "constant/air";
    object      divqrsw;
}
// * * * * * * * * * * * * * * * * * * * * * * * * * * * * * * * * * * * * * //


5
(

5106
(
0
0
0
0
0
0
0
0
0
0
0
0
0
0
0
0
0
0
0
0
0
0
0
0
0
0
0
0
0
0
0
0
0
0
0
0
0
0
0
0
0
0
0
0
0
0
0
0
0
0
0
0
0
0
0
0
0
0
0
0
0
0
0
0
0
0
0
0
0
0
0
0
0
0
0
0
0
0
0
0
0
0
0
0
0
0
0
0
0
0
0
0
0
0
0
0
0
0
0
0
0
0
0
0
0
0
0
0
0
0
0
0
0
0
0
0
0
0
0
0
0
0
0
0
0
0
0
0
0
0
0
0
0
0
0
0
0
0
0
0
0
0
0
0
0
0
0
0
0
0
0
0
0
0
0
0
0
0
0
0
0
0
-77.403351
0
0
-96.842236
0
0
0
0
0
0
0
0
0
0
-80.892284
0
0
-98.642079
0
-36.097957
0
-72.601243
-89.278487
0
-58.107221
0
0
0
0
0
0
0
0
0
0
0
0
0
0
0
0
0
-74.976343
-94.951857
0
0
0
0
0
0
0
0
0
0
0
0
0
0
0
0
0
0
0
0
0
0
0
0
0
0
0
0
0
0
0
0
0
0
0
0
0
0
0
0
0
0
0
0
0
0
0
0
0
0
0
0
0
0
0
0
0
0
0
0
0
0
0
0
0
0
0
0
0
0
0
0
0
0
0
0
0
0
0
0
0
0
0
0
0
0
0
0
0
0
0
0
0
0
0
0
0
0
0
0
0
0
0
0
0
0
0
0
0
0
0
0
0
0
0
0
0
0
0
0
0
0
0
0
0
0
0
0
0
0
0
0
0
0
0
0
0
0
0
0
0
0
0
0
0
0
0
0
0
0
0
0
0
0
0
0
0
0
0
0
0
0
0
0
0
0
0
0
-24.508948
-34.21413
0
-17.25557
0
0
0
0
0
0
0
0
0
0
0
0
0
0
0
0
0
0
0
0
0
0
0
0
0
0
0
0
0
0
0
0
0
0
-0
0
0
0
0
0
0
0
0
0
0
0
0
0
0
0
0
0
0
0
0
0
0
0
0
0
0
0
0
0
0
0
0
0
0
0
0
0
0
0
0
0
0
0
0
0
0
0
-109.65771
0
-96.861954
0
0
0
0
0
0
0
0
-130.01592
0
-77.612803
0
0
-105.24596
0
0
0
0
0
0
0
0
0
0
0
0
0
0
0
0
0
0
0
0
0
0
0
0
0
0
0
0
0
-51.216599
0
0
0
-70.996949
0
0
-65.73397
0
0
-110.55766
0
-90.318207
0
0
0
0
0
0
0
0
-136.76309
0
-87.971553
0
0
-113.33639
0
0
0
-75.765793
0
-89.288511
0
-25.008584
-46.226664
-35.539977
-49.78683
-50.340621
-64.665456
-34.099811
0
-54.313377
-38.002661
-54.129505
-62.569943
-77.165293
-39.613263
-58.334749
-63.723405
-48.388564
-68.095415
-100.34258
-81.274234
-89.193144
-85.747817
-124.63421
-79.608982
-79.106268
-102.54365
-65.981537
-111.40123
-41.563549
0
0
0
-33.333173
-21.681362
0
-62.055865
-63.064546
-69.15121
-38.438164
-81.510653
-51.760279
-41.396451
-67.824725
-79.155672
-68.057869
0
-51.398364
-96.9852
-49.090756
0
0
0
0
0
0
0
0
0
0
0
0
0
0
0
0
0
0
0
0
0
0
0
0
0
0
0
0
0
0
0
0
0
0
0
0
0
0
0
0
0
0
0
0
0
0
0
0
0
0
0
0
0
0
0
0
0
0
0
0
0
0
0
0
0
0
0
0
0
0
0
-67.254621
-67.255627
-97.4371
-86.12546
-99.415517
-83.955742
-69.32044
-71.577967
-68.77988
-98.518816
-107.48464
-98.339356
-104.05436
-107.61629
-128.06847
-90.976983
-78.364152
-106.99471
-124.93765
-78.353002
0
0
0
0
0
0
0
-107.0788
-100.03511
-83.155704
0
-119.18471
-77.544693
-93.089104
0
0
0
0
0
0
0
0
0
0
0
0
0
0
0
0
0
0
0
0
0
0
0
0
0
0
0
0
0
0
0
0
0
0
0
0
0
0
0
0
0
0
0
0
0
0
0
0
0
0
0
0
0
0
0
0
0
0
0
0
0
0
0
0
0
0
0
0
-0
0
0
0
0
-0
0
-0
0
0
0
0
-0
0
-0
-0
0
0
0
-0
0
0
0
0
0
0
-0
0
0
0
-0
0
0
0
-0
-0
0
-0
0
0
0
0
0
0
0
0
0
0
0
0
0
0
0
0
0
0
0
0
0
0
0
0
0
0
0
0
0
0
0
0
0
0
0
0
0
0
0
0
0
0
0
0
0
0
0
0
0
0
0
0
0
0
0
0
0
0
0
0
0
0
0
0
0
0
0
0
0
0
0
0
0
0
0
0
0
0
0
0
0
0
0
0
0
0
0
0
0
0
0
0
0
0
0
0
0
0
0
0
0
0
0
0
0
0
0
0
0
0
0
0
0
0
0
0
0
0
0
0
0
0
0
0
0
0
0
0
0
0
0
0
0
0
0
0
0
0
0
0
0
0
0
0
0
0
0
0
0
0
0
0
0
0
0
0
0
0
0
0
0
0
0
0
0
0
0
0
0
0
0
0
0
0
0
0
0
0
0
0
0
0
0
0
0
0
0
0
0
0
0
0
0
0
0
0
0
0
0
0
0
0
0
0
0
0
0
0
0
0
0
0
0
0
0
0
0
0
0
0
0
0
0
0
0
0
0
0
0
0
0
0
-0.0021736852
0
0
0
0
0
0
0
0
0
0
-0
0
-0
0
-0
0
0
0
0
0
0
0
0
0
0
0
0
0
0
0
0
0
0
0
0
0
0
0
0
0
0
0
0
0
0
0
0
0
0
0
0
0
0
0
0
0
0
0
0
0
0
0
0
0
0
0
0
0
0
0
0
0
0
0
0
0
0
0
0
0
0
0
0
0
0
0
0
0
0
0
0
0
0
0
0
0
0
0
0
0
0
0
0
0
0
0
0
0
0
0
0
0
0
0
0
0
0
0
0
0
0
0
0
0
0
-0
0
-0
0
0
0
0
0
0
0
0
-0
0
-0
0
-0
0
0
0
0
-0
0
-0
0
0
0
0
0
0
0
0
0
0
0
-0.065203711
0
0
-0.073096157
0
0
0
-0.046008167
-0.028148079
-0.032306584
-0.051718892
-0
-0
-0
-0
-0
-0
-0
0
0
0
0
0
0
0
-0
-0
-0
0
0
-0
-0
0
0
0
0
0
0
0
0
0
0
-0
0
0
-0
0
0
0
-0.027100586
0
0
-0.059309094
0
0
0
-0.021839139
-0.022168065
-0.01143852
-0.04257051
-0
-0
-0
-0
-0
-0
-0
-0
0
-0
0
-0
0
-0
-0
-0
-0
-0
-0
-0
-0
-0
-0
-0
-0
0
-0
-0
0
0
-0
-0
0
0
0
0
0
0
0
0
0
0
0
0
0
0
0
0
0
0
0
-0
-0
0
0
0
0
0
-0
0
0
0
0
0
0
0
0
0
0
0
-0
-0
-0
-0
-0
-0
-0
0
0
-0
0
0
0
-0
0
0
0
0
0
0
0
0
0
0
0
0
0
0
0
-0
-0
0
0
-0
0
-0
-0
0
0
0
-0
-0
0
0
0
0
0
0
0
-0
-0
-0
-0
-0
-0
-0
0
0
0
0
0
0
0
0
0
0
0
0
0
0
0
-0
0
0
0
-0
-0
0
0
0
0
0
0
0
0
0
0
0
0
0
0
0
0
0
0
0
0
0
0
0
0
0
0
0
0
0
0
0
0
0
0
0
0
0
0
0
0
0
0
0
0
0
0
0
0
0
0
0
0
0
0
0
0
0
0
0
0
0
0
0
0
0
0
0
0
0
0
0
0
0
0
0
0
0
0
0
0
0
0
0
0
0
0
0
0
0
0
0
0
0
0
0
0
0
0
0
0
0
0
0
0
0
0
0
0
0
0
0
0
0
0
0
0
0
0
0
0
0
0
0
0
0
0
0
0
0
0
0
0
0
0
0
0
0
0
0
0
0
0
0
0
0
0
0
0
0
0
0
0
0
0
0
0
0
0
0
0
0
0
0
0
0
0
0
0
0
0
0
0
0
0
0
0
0
0
0
0
0
0
0
0
0
0
0
0
0
0
0
0
0
0
0
0
0
0
0
0
0
0
0
0
0
0
0
0
0
0
0
0
0
0
0
0
0
0
0
0
0
0
0
0
0
0
0
0
0
0
0
0
0
0
0
0
0
0
0
0
0
0
0
0
0
0
0
0
0
0
0
0
0
0
0
0
0
0
0
0
0
0
0
0
0
0
0
0
0
0
0
0
0
0
0
0
0
0
0
0
0
0
0
0
0
0
0
0
0
0
0
0
0
0
0
0
0
0
0
0
0
0
0
0
0
0
0
0
0
0
0
0
0
0
0
0
0
0
0
0
0
0
0
0
0
0
0
0
0
0
0
0
0
0
0
0
0
0
0
0
0
0
0
0
0
0
0
0
0
0
0
0
0
0
0
0
0
0
0
0
0
0
0
0
0
0
0
0
0
0
0
0
0
0
0
0
0
0
0
0
0
0
0
0
0
0
0
0
0
0
0
0
0
0
0
0
0
0
0
0
0
0
0
0
0
0
0
0
0
0
0
0
0
0
0
0
0
0
0
0
0
0
0
0
0
0
0
0
0
0
-75.641173
-47.293767
-55.55071
0
-101.61273
0
-41.350423
0
0
0
0
0
0
0
0
-46.311512
0
0
0
0
0
0
0
0
0
0
0
-37.420592
0
0
0
0
0
0
0
0
-35.748584
0
0
0
0
-77.042526
0
-58.880013
-61.913759
0
-89.592327
0
0
0
0
0
0
0
0
0
0
0
0
0
0
0
0
0
0
0
0
0
0
0
0
0
0
0
0
0
0
0
0
0
0
0
0
0
0
0
0
0
0
0
0
0
0
0
0
0
0
0
0
0
0
0
0
0
0
0
0
0
0
0
0
0
0
0
0
0
0
0
0
0
0
0
0
0
0
0
0
0
0
0
0
0
0
0
0
0
0
0
0
0
0
0
0
0
0
0
0
0
0
0
0
0
0
0
0
0
0
0
0
0
0
0
0
0
0
0
0
0
0
0
0
0
0
0
0
-73.511808
-37.990268
0
0
-90.052705
-53.766555
-52.571637
0
0
0
0
0
0
0
0
0
0
0
0
0
0
0
0
0
0
0
0
0
-2.3624055
0
0
0
0
0
0
0
0
0
0
0
0
0
0
0
0
0
0
0
0
0
0
0
0
0
0
0
0
0
0
0
0
0
0
0
0
0
0
0
0
0
0
0
0
0
0
0
0
0
0
0
0
0
0
0
0
0
0
0
0
0
0
0
0
0
0
0
0
0
0
0
0
0
0
0
0
0
0
0
0
0
0
0
0
0
0
0
0
0
0
0
0
0
0
0
0
0
0
0
0
0
0
0
0
0
0
0
0
0
0
0
-42.754125
0
0
0
-38.933165
0
0
0
0
-36.885147
0
-31.672192
0
0
-47.406246
0
0
0
-52.995194
0
0
0
0
0
0
0
0
0
0
0
-43.390709
0
-51.434116
0
0
0
0
0
0
0
-28.481019
-55.731692
-28.266171
-26.216345
-40.81045
-38.926079
-38.926993
-89.659286
-75.225705
-67.649861
-103.79503
-105.51573
-64.315132
-92.402021
-38.091384
-71.816724
-58.218324
-63.529368
-51.961472
-51.719955
-79.004223
-90.523383
-73.886655
-72.607455
-49.248375
-70.866887
-64.229632
-94.053309
-91.529939
0
-95.527953
-58.142918
-111.83127
-77.575318
-65.350952
-115.09112
-127.72315
-87.957909
-114.69562
-136.38125
-93.965429
-111.99959
-69.283012
-32.16971
-39.794081
-42.052096
-57.801116
-48.330238
-48.119087
0
0
-50.435575
0
0
0
0
0
0
0
0
0
0
0
0
0
0
0
0
0
0
0
-57.406883
0
0
0
0
0
0
0
0
0
0
0
0
0
0
0
0
0
0
0
0
0
0
0
-61.363174
0
-74.973751
0
-65.043337
0
0
0
0
-72.844452
0
0
0
0
0
0
0
0
0
0
0
0
0
0
0
0
0
0
0
0
0
0
0
-50.859448
0
-49.389577
0
0
0
0
0
0
0
0
0
0
0
0
0
0
0
0
0
0
0
0
0
0
0
0
-63.086876
0
0
0
-66.249957
0
0
0
0
0
0
0
0
0
0
0
0
0
0
0
0
0
0
0
-47.797053
-35.141954
0
0
-55.203028
0
0
-43.749409
0
0
0
0
0
0
0
0
0
-103.76031
0
-72.375574
-103.74331
-105.15337
-78.529676
-97.125428
0
0
0
0
0
0
0
-73.107745
-100.43364
-66.260057
-78.011439
-76.32834
-88.456184
-95.63404
-99.183116
-82.719016
-73.238375
-68.919067
-95.831015
-75.03115
-92.596169
0
0
0
0
0
0
0
-102.78006
-114.69987
-82.238385
-79.831403
-104.15961
-106.35435
-78.238476
0
0
0
0
0
0
0
0
0
0
-10.121443
0
-52.865709
0
0
0
0
-2.0211461
0
0
0
0
0
0
-12.506168
0
-64.863602
-14.338575
-7.1992111
0
0
0
0
-36.771659
-9.0930731
-1.2664394
0
0
0
0
0
0
-1.1086115
0
0
0
0
0
0
-5.8051425
0
0
0
0
-29.764329
0
0
0
0
0
0
0
0
0
0
0
0
0
0
0
0
0
0
0
0
0
0
0
0
0
0
0
0
0
0
0
0
0
0
0
0
0
0
0
0
0
0
0
0
0
0
0
0
0
0
0
0
0
0
0
0
0
0
0
0
0
0
0
0
0
0
0
0
0
0
0
0
0
0
0
0
0
0
0
0
0
0
0
0
0
0
0
0
0
0
0
0
0
0
0
0
0
0
0
0
0
0
0
0
0
0
0
0
0
0
0
0
0
0
0
0
0
0
0
0
0
0
0
0
0
0
0
0
0
0
0
0
0
0
0
0
0
0
0
0
0
0
0
0
0
0
0
0
0
0
0
0
0
0
0
0
0
0
0
0
0
0
0
0
0
0
0
0
0
0
0
0
-3.4098589
0
-2.0693135
-3.0623067
0
0
0
0
0
0
0
0
0
0
0
0
0
0
0
0
0
0
0
0
0
0
0
0
0
0
0
0
0
0
0
0
0
0
0
0
0
0
0
0
0
0
0
0
0
0
0
0
0
0
0
0
0
0
0
0
0
0
0
0
0
0
0
0
0
0
0
0
0
0
0
0
0
0
0
0
0
0
0
0
0
0
-45.568665
0
-55.963823
0
0
0
0
-28.506709
-14.075172
-10.08332
-35.667305
-25.676606
-14.040462
-25.319139
-6.2952607
-8.9091151
-35.479501
-17.959479
0
0
0
0
0
0
0
-41.189973
-74.35442
-39.568711
-38.682467
-55.586947
-28.755755
0
0
0
0
0
0
0
0
0
0
0
0
0
0
0
0
0
0
0
0
0
0
0
-3.0286804
0
-1.4912167
0
0
0
0
0
0
0
0
0
0
0
0
0
-58.172152
0
-64.906499
0
0
0
0
-33.20943
0
0
0
0
0
0
-37.081551
-16.865284
-40.453165
-16.808272
-42.50131
-17.887189
-29.425249
-13.767407
-42.423843
-19.420705
-29.964554
-63.768946
0
-56.165988
-43.026382
-45.507657
-79.362806
-55.499374
-66.449925
-93.922187
-46.883853
-62.859864
-67.777026
-46.754102
-90.125307
-41.48019
-18.433848
-14.418451
-28.331995
-20.111335
-29.639891
-36.486175
-6.1889003
-1.9806842
-16.791982
-8.2540163
-17.857186
-2.8943474
-4.534057
-11.341579
0
-34.287102
-27.27342
-28.029955
0
0
0
0
0
0
0
0
0
0
0
0
0
0
0
0
0
0
0
0
0
0
0
-9.540462
-26.653207
-36.998243
-9.6436038
-27.782898
-7.0894665
0
-7.4448431
-8.9305716
-17.974215
0
-18.291438
0
0
0
0
0
-1.0663046
0
0
0
0
0
0
0
0
0
0
0
0
0
-0.82799617
0
0
0
0
0
0
0
0
0
0
-0.39304238
-1.0421306
-14.355306
-3.3842914
-9.536363
-2.5736253
-0.16069093
0
0
0
0
0
0
0
0
0
0
0
0
0
0
0
0
0
0
0
0
0
-0.5292963
-22.341071
-20.39623
-5.0373409
-15.206261
-3.8905679
0
0
0
0
0
0
0
0
0
0
0
0
0
0
0
0
0
0
0
0
0
0
0
0
0
0
0
0
0
0
0
0
0
0
0
0
0
0
0
0
0
0
0
0
0
0
0
0
0
0
0
0
0
0
0
0
0
0
0
0
0
0
0
0
0
0
0
0
0
0
0
0
0
0
0
0
0
0
0
0
0
0
0
0
0
0
0
0
0
0
0
0
0
0
0
0
0
0
0
0
0
0
0
0
0
0
0
0
0
0
0
0
0
0
0
0
0
0
0
0
0
0
0
0
0
0
0
0
0
0
0
0
0
0
0
0
0
0
0
0
0
0
0
0
0
0
0
0
0
0
0
0
0
0
0
0
0
0
0
0
0
0
0
0
0
0
0
0
0
0
0
0
0
0
0
0
0
0
0
0
0
0
0
0
0
0
0
0
0
0
0
0
0
0
0
0
0
0
0
0
0
0
0
0
0
0
0
0
0
0
0
0
0
0
0
0
0
0
0
0
0
0
0
0
0
0
0
0
0
0
0
0
0
0
0
0
0
0
0
0
0
0
0
0
0
0
0
0
0
0
0
0
0
0
0
0
0
0
0
0
0
0
0
0
0
0
0
0
0
0
0
0
0
0
0
0
0
0
0
0
0
0
0
0
0
0
0
0
0
0
0
0
0
0
0
0
0
0
0
0
0
0
0
0
0
0
0
0
0
0
0
0
0
0
0
0
0
0
0
0
0
0
0
0
0
0
0
0
0
0
0
0
0
0
0
0
0
0
0
0
0
0
0
0
0
0
0
0
0
0
0
0
0
0
0
0
0
0
0
0
0
0
0
0
0
0
0
0
0
0
0
0
0
0
0
0
0
0
0
0
0
0
0
0
0
0
0
0
0
0
0
0
0
0
0
0
0
0
0
0
0
0
0
0
0
0
0
0
0
0
0
0
0
0
0
0
0
0
0
0
0
0
0
0
0
0
0
0
0
0
0
0
0
0
0
0
0
0
0
0
0
0
0
0
0
0
0
0
0
0
0
0
0
0
0
0
0
0
0
0
0
0
0
0
0
0
0
0
0
0
0
0
0
0
0
0
0
0
0
0
0
0
0
0
0
0
0
0
0
0
0
0
0
0
0
0
0
0
0
0
0
0
0
0
0
0
0
0
0
0
0
-24.33814
0
0
0
0
0
0
-4.4635265
0
0
0
-16.512395
0
0
0
0
0
0
0
0
0
0
0
0
0
0
0
0
0
0
0
0
0
0
0
0
0
0
0
0
0
0
0
0
0
0
0
0
0
0
0
0
0
0
0
0
0
0
0
0
0
0
0
0
0
0
0
0
0
0
0
0
0
0
0
0
-20.994819
-7.9697556
-31.134521
0
-25.07416
-9.1345764
0
0
0
0
0
0
0
0
0
0
0
0
0
0
0
0
0
-6.7143799
0
0
-2.5260658
0
0
0
0
0
0
0
0
-15.005432
-5.3632027
-8.6613907
0
-9.0849086
-2.7694805
0
0
-15.146975
0
0
0
0
0
0
-7.729534
0
0
0
0
0
0
0
0
0
0
0
0
0
0
0
0
0
0
0
0
0
0
0
0
0
0
0
0
0
0
0
0
0
0
0
-81.082683
0
0
0
0
0
0
0
0
0
0
0
0
0
0
0
0
0
0
0
0
0
0
0
0
0
0
0
0
0
0
0
0
0
0
0
0
0
0
0
0
0
0
0
0
-80.387715
0
0
0
0
0
0
0
0
0
0
0
0
0
0
0
0
0
0
0
0
0
0
0
0
0
0
0
0
0
0
0
0
0
0
0
0
0
0
0
0
0
0
0
-71.137369
0
0
0
0
0
0
0
0
0
0
0
0
0
0
0
0
0
0
0
0
0
0
0
0
0
0
0
0
0
0
0
0
0
0
0
0
-71.007659
0
0
0
0
0
0
0
0
0
0
0
0
0
0
0
0
0
0
0
0
0
0
-70.858138
-89.511791
0
0
0
0
-102.21272
0
0
0
0
0
-83.350067
0
-101.34789
0
0
0
0
0
0
0
0
0
0
0
0
0
0
0
0
0
0
0
0
0
0
0
0
0
0
-42.633037
0
0
-7.6295546
0
0
0
0
-29.456678
0
0
0
0
0
0
0
0
0
0
0
0
0
0
0
0
0
0
0
0
0
-70.357203
0
0
-85.989142
0
0
0
0
-101.92088
0
-53.083996
0
0
0
-83.363553
-100.37269
0
0
0
0
0
0
0
0
0
0
0
0
0
0
0
0
0
0
0
0
0
0
0
0
0
0
0
0
0
0
0
0
0
0
0
0
0
0
0
0
0
0
0
0
0
0
0
0
0
0
0
0
0
0
0
0
0
0
0
0
0
0
0
0
0
0
0
0
0
-71.588792
0
0
-86.311723
-110.06498
-92.409737
-98.793217
0
0
0
0
0
0
0
0
0
0
0
0
0
0
0
0
0
0
0
0
0
0
0
0
0
0
0
0
0
0
0
0
0
0
0
0
0
0
0
0
0
0
0
0
0
0
0
0
0
-70.392036
-80.118596
-69.585793
-95.752297
-108.99753
-96.993959
-108.52929
0
0
0
0
0
0
0
0
0
0
0
0
0
0
0
0
0
0
0
0
0
0
0
0
0
0
0
0
0
0
0
0
0
0
0
0
0
0
0
0
0
0
0
-69.818051
0
0
0
0
0
0
0
0
0
0
0
0
0
0
0
-70.244039
0
0
0
-77.408525
-73.58429
0
-88.346943
-121.73214
-98.770108
-106.75295
0
0
0
0
0
0
0
0
0
0
0
0
0
0
0
0
0
0
0
0
0
-91.463005
-133.2428
-81.934616
-89.274007
-72.267653
-107.33164
-111.83696
0
0
0
0
0
0
0
-62.904514
0
0
-80.82054
-75.184098
0
-88.371239
0
0
0
0
0
0
0
0
0
0
0
0
0
0
0
0
0
0
0
0
0
-104.06233
-94.097467
0
-97.193071
0
0
-113.30566
0
0
0
0
0
0
0
-109.98629
-131.81848
-84.202494
-100.0399
-86.59351
-109.93013
-125.43096
0
0
0
0
0
0
0
0
0
0
0
0
0
0
0
0
0
0
0
0
0
0
0
0
-67.785507
0
0
0
0
0
0
0
0
0
0
-64.837984
-36.721057
-55.192698
-62.899648
-44.237867
-53.966195
-81.358764
0
0
0
0
0
0
0
0
0
0
0
0
0
0
0
-10.495485
0
-11.481816
0
-12.855375
-16.841356
0
0
0
-44.412263
0
0
-24.271751
0
0
0
0
0
0
0
0
0
0
0
0
0
0
-24.229431
-26.948027
-15.872937
-44.238341
-15.802264
-40.492507
-25.586366
0
0
0
0
0
0
0
0
0
0
-26.838202
0
0
0
-5.3794195
0
0
-13.569303
0
0
0
0
0
0
0
0
0
0
0
0
0
0
0
0
0
0
0
0
0
0
0
0
0
0
0
0
0
0
0
0
0
0
0
0
0
0
0
0
0
0
0
0
0
0
0
0
0
0
0
0
0
0
0
0
0
0
0
0
-68.85508
0
-69.244344
0
0
-67.30346
0
0
0
0
0
0
0
-74.916582
-82.908171
-72.21089
-99.476509
-119.16498
-103.12379
-114.96403
0
0
0
0
0
0
0
-80.310891
0
0
0
0
-111.46951
0
-99.027305
0
-97.486581
0
-78.189814
-124.07317
0
0
0
0
0
0
0
0
-103.51055
-132.97621
-101.11999
-85.954937
-82.252882
-107.88444
-129.75053
0
0
0
0
0
0
0
-61.304788
0
-60.047623
-84.000767
-74.923522
-85.937849
-73.14852
0
0
0
-82.614893
0
0
0
-80.34243
0
0
-95.143958
0
-108.75469
0
-120.36974
0
-96.857591
0
-93.280847
-127.47467
0
-107.29655
-93.856289
-94.443389
-82.557131
-109.96766
-93.39148
-91.420063
-121.24069
-130.55798
-98.933137
-98.250359
-122.95965
-96.043908
-129.16217
-105.36038
0
0
0
0
0
0
0
0
0
0
0
0
0
0
0
0
0
0
0
0
0
0
0
0
0
0
0
0
0
0
0
0
0
0
0
0
0
0
0
0
0
0
0
0
0
0
0
0
0
0
0
0
0
0
0
0
0
0
0
0
0
0
0
0
0
-23.521914
-11.508803
-18.34514
-6.0989126
-6.9542308
-4.4900257
-3.8606784
-6.044138
0
-3.8589094
0
0
-1.2793062
0
0
0
0
0
0
0
0
0
0
0
0
0
0
0
0
0
0
0
0
0
0
0
-3.1609015
-1.5665578
-2.4960803
-4.7372869
-1.7758613
-0.92733903
-12.582146
-4.0237433
-6.4439508
-4.2446845
-1.9612078
-1.1484075
-2.6762201
0
-1.9786147
-0.61985477
0
0
-0.67726298
0
0
0
0
0
0
0
0
0
0
0
0
-0
0
0
0
0
0
0
0
0
0
0
0
0
0
0
0
0
0
0
0
0
0
0
0
0
0
0
0
0
0
0
0
0
0
0
0
0
0
0
0
0
0
0
0
0
0
0
0
0
0
0
0
0
0
0
0
0
0
0
0
0
0
0
0
0
0
0
0
0
0
0
0
0
0
0
0
0
0
0
0
0
0
0
0
0
0
0
0
0
0
0
0
0
-51.073259
0
0
-71.623093
-46.786191
-32.619216
0
0
0
0
0
0
0
-41.638057
-20.066724
-32.01153
-47.139215
-61.345709
-39.597579
-29.567229
0
0
0
0
0
0
0
-10.836874
0
-6.8370104
0
0
0
-10.23767
0
0
0
0
0
0
0
-2.674279
-4.289084
-8.1001016
-7.3851456
-11.876167
-6.3160143
-3.6934427
0
-33.505941
0
-18.671537
0
-11.469513
-20.929361
0
0
0
0
0
0
0
-22.212186
-7.5628697
-12.454428
-33.172893
-19.665141
-11.79414
-20.22606
0
0
0
0
0
0
0
0
-3.559264
-1.2213244
-2.0056527
0
0
-5.4419621
0
0
-0.060719663
0
0
0
0
0
0
0
0
0
0
0
0
0
0
0
0
0
0
0
0
0
0
0
0
0
0
0
0
0
0
0
0
0
0
0
0
0
0
0
0
0
0
0
0
0
0
0
0
0
0
0
0
0
0
0
0
0
0
0
0
0
0
0
0
0
0
0
0
0
0
0
0
0
0
0
0
0
0
0
0
0
0
0
0
0
0
0
0
0
0
0
0
0
0
0
0
0
0
0
0
0
0
0
0
0
0
0
0
0
0
0
0
0
0
0
0
0
0
0
0
0
0
0
0
0
0
0
0
0
0
0
0
0
0
0
0
0
0
0
0
0
0
0
0
0
0
0
0
0
0
0
0
0
0
0
0
0
0
0
0
0
0
0
0
0
0
0
0
0
0
0
0
0
0
0
0
0
0
0
0
0
0
0
0
0
0
0
0
0
0
0
0
0
0
0
0
0
0
0
0
0
0
0
0
0
0
0
0
0
0
0
0
0
0
0
0
0
0
0
0
0
0
0
0
0
0
0
0
0
0
0
0
0
0
0
0
0
0
0
0
0
0
0
0
0
0
0
0
0
0
0
0
0
0
0
0
0
0
0
0
0
0
0
0
0
0
0
0
0
0
0
0
0
0
0
0
0
0
0
0
0
0
0
0
0
0
0
0
0
0
0
0
0
0
0
0
0
0
0
0
0
0
0
0
0
0
0
0
0
0
0
0
0
0
0
0
0
0
0
0
0
0
0
0
0
0
0
0
0
0
0
0
0
0
0
0
0
0
0
0
0
0
0
0
0
0
0
0
0
0
0
0
0
0
0
0
0
0
0
0
0
0
0
0
)


5106
(
0
0
0
0
0
0
0
0
0
0
0
0
0
0
0
0
0
0
0
0
0
0
0
0
0
0
0
0
0
0
0
0
0
0
0
0
0
0
0
0
0
0
0
0
0
0
0
0
0
0
0
0
0
0
0
0
0
0
0
0
0
0
0
0
0
0
0
0
0
0
0
0
0
0
0
0
0
0
0
0
0
0
0
0
0
0
0
0
0
0
0
0
0
0
0
0
0
0
0
0
0
0
0
0
0
0
0
0
0
0
0
0
0
0
0
0
0
0
0
0
0
0
0
0
0
0
0
0
0
0
0
0
0
0
0
0
0
0
0
0
0
0
0
0
0
0
0
0
0
0
0
0
0
0
0
0
0
0
0
0
0
0
-46.806638
0
0
-57.393014
0
0
0
0
0
0
0
0
0
0
-42.304194
0
0
-58.019799
0
-18.514379
0
-38.092758
-51.563627
0
-30.540534
0
0
0
0
0
0
0
0
0
0
0
0
0
0
0
0
0
-45.375814
-55.25459
0
0
0
0
0
0
0
0
0
0
0
0
0
0
0
0
0
0
0
0
0
0
0
0
0
0
0
0
0
0
0
0
0
0
0
0
0
0
0
0
0
0
0
0
0
0
0
0
0
0
0
0
0
0
0
0
0
0
0
0
0
0
0
0
0
0
0
0
0
0
0
0
0
0
0
0
0
0
0
0
0
0
0
0
0
0
0
0
0
0
0
0
0
0
0
0
0
0
0
0
0
0
0
0
0
0
0
0
0
0
0
0
0
0
0
0
0
0
0
0
0
0
0
0
0
0
0
0
0
0
0
0
0
0
0
0
0
0
0
0
0
0
0
0
0
0
0
0
0
0
0
0
0
0
0
0
0
0
0
0
0
0
0
0
0
0
0
0
-11.805468
-15.572419
0
-7.9239666
0
0
0
0
0
0
0
0
0
0
0
0
0
0
0
0
0
0
0
0
0
0
0
0
0
0
0
0
0
0
0
0
0
0
-0
0
0
0
0
0
0
0
0
0
0
0
0
0
0
0
0
0
0
0
0
0
0
0
0
0
0
0
0
0
0
0
0
0
0
0
0
0
0
0
0
0
0
0
0
0
0
0
-61.733899
0
-59.74746
0
0
0
0
0
0
0
0
-76.330217
0
-54.77437
0
0
-72.454089
0
0
0
0
0
0
0
0
0
0
0
0
0
0
0
0
0
0
0
0
0
0
0
0
0
0
0
0
0
-31.918677
0
0
0
-43.443293
0
0
-37.297889
0
0
-56.426041
0
-50.236104
0
0
0
0
0
0
0
0
-70.203222
0
-56.716889
0
0
-62.772567
0
0
0
-53.202675
0
-54.531894
0
-12.448183
-25.085077
-18.375554
-24.609405
-24.599222
-33.907172
-16.513595
0
-28.918992
-19.791607
-27.37762
-34.397292
-40.195964
-20.910596
-31.307313
-33.405047
-25.464778
-34.712594
-51.210301
-42.341244
-45.538908
-42.923576
-63.640095
-46.593291
-45.043435
-52.651528
-37.069259
-56.673221
-17.954305
0
0
0
-15.228893
-9.5592663
0
-29.768543
-29.892148
-40.273945
-20.324746
-41.969496
-27.453399
-20.044425
-33.618061
-43.035229
-39.0386
0
-28.10157
-50.166258
-25.571208
0
0
0
0
0
0
0
0
0
0
0
0
0
0
0
0
0
0
0
0
0
0
0
0
0
0
0
0
0
0
0
0
0
0
0
0
0
0
0
0
0
0
0
0
0
0
0
0
0
0
0
0
0
0
0
0
0
0
0
0
0
0
0
0
0
0
0
0
0
0
0
-39.119886
-38.981912
-55.77104
-49.950292
-53.959355
-53.22984
-43.814884
-42.130059
-41.261618
-58.010935
-60.44815
-60.582901
-57.021021
-70.000358
-74.868774
-51.446118
-54.925541
-73.146141
-70.950092
-52.210455
0
0
0
0
0
0
0
-67.312139
-62.658415
-48.110818
0
-67.531008
-49.849615
-64.072854
0
0
0
0
0
0
0
0
0
0
0
0
0
0
0
0
0
0
0
0
0
0
0
0
0
0
0
0
0
0
0
0
0
0
0
0
0
0
0
0
0
0
0
0
0
0
0
0
0
0
0
0
0
0
0
0
0
0
0
0
0
0
0
0
0
0
0
0
-0
0
0
0
0
-0
0
-0
0
0
0
0
-0
0
-0
-0
0
0
0
-0
0
0
0
0
0
0
-0
0
0
0
-0
0
0
0
-0
-0
0
-0
0
0
0
0
0
0
0
0
0
0
0
0
0
0
0
0
0
0
0
0
0
0
0
0
0
0
0
0
0
0
0
0
0
0
0
0
0
0
0
0
0
0
0
0
0
0
0
0
0
0
0
0
0
0
0
0
0
0
0
0
0
0
0
0
0
0
0
0
0
0
0
0
0
0
0
0
0
0
0
0
0
0
0
0
0
0
0
0
0
0
0
0
0
0
0
0
0
0
0
0
0
0
0
0
0
0
0
0
0
0
0
0
0
0
0
0
0
0
0
0
0
0
0
0
0
0
0
0
0
0
0
0
0
0
0
0
0
0
0
0
0
0
0
0
0
0
0
0
0
0
0
0
0
0
0
0
0
0
0
0
0
0
0
0
0
0
0
0
0
0
0
0
0
0
0
0
0
0
0
0
0
0
0
0
0
0
0
0
0
0
0
0
0
0
0
0
0
0
0
0
0
0
0
0
0
0
0
0
0
0
0
0
0
0
0
0
0
0
0
0
0
0
0
0
0
0
0
0
0
0
0
0
-0
0
0
0
0
0
0
0
0
0
0
-0
0
-0
0
-0
0
0
0
0
0
0
0
0
0
0
0
0
0
0
0
0
0
0
0
0
0
0
0
0
0
0
0
0
0
0
0
0
0
0
0
0
0
0
0
0
0
0
0
0
0
0
0
0
0
0
0
0
0
0
0
0
0
0
0
0
0
0
0
0
0
0
0
0
0
0
0
0
0
0
0
0
0
0
0
0
0
0
0
0
0
0
0
0
0
0
0
0
0
0
0
0
0
0
0
0
0
0
0
0
0
0
0
0
0
0
-0
0
-0
0
0
0
0
0
0
0
0
-0
0
-0
0
-0
0
0
0
0
-0
0
-0
0
0
0
0
0
0
0
0
0
0
0
-0
0
0
-0
0
0
0
-0
-0
-0
-0
-0
-0
-0
-0
-0
-0
-0
0
0
0
0
0
0
0
-0
-0
-0
0
0
-0
-0
0
0
0
0
0
0
0
0
0
0
-0
0
0
-0
0
0
0
-0
0
0
-0
0
0
0
-0
-0
-0
-0
-0
-0
-0
-0
-0
-0
-0
-0
0
-0
0
-0
0
-0
-0
-0
-0
-0
-0
-0
-0
-0
-0
-0
-0
0
-0
-0
0
0
-0
-0
0
0
0
0
0
0
0
0
0
0
0
0
0
0
0
0
0
0
0
-0
-0
0
0
0
0
0
-0
0
0
0
0
0
0
0
0
0
0
0
-0
-0
-0
-0
-0
-0
-0
0
0
-0
0
0
0
-0
0
0
0
0
0
0
0
0
0
0
0
0
0
0
0
-0
-0
0
0
-0
0
-0
-0
0
0
0
-0
-0
0
0
0
0
0
0
0
-0
-0
-0
-0
-0
-0
-0
0
0
0
0
0
0
0
0
0
0
0
0
0
0
0
-0
0
0
0
-0
-0
0
0
0
0
0
0
0
0
0
0
0
0
0
0
0
0
0
0
0
0
0
0
0
0
0
0
0
0
0
0
0
0
0
0
0
0
0
0
0
0
0
0
0
0
0
0
0
0
0
0
0
0
0
0
0
0
0
0
0
0
0
0
0
0
0
0
0
0
0
0
0
0
0
0
0
0
0
0
0
0
0
0
0
0
0
0
0
0
0
0
0
0
0
0
0
0
0
0
0
0
0
0
0
0
0
0
0
0
0
0
0
0
0
0
0
0
0
0
0
0
0
0
0
0
0
0
0
0
0
0
0
0
0
0
0
0
0
0
0
0
0
0
0
0
0
0
0
0
0
0
0
0
0
0
0
0
0
0
0
0
0
0
0
0
0
0
0
0
0
0
0
0
0
0
0
0
0
0
0
0
0
0
0
0
0
0
0
0
0
0
0
0
0
0
0
0
0
0
0
0
0
0
0
0
0
0
0
0
0
0
0
0
0
0
0
0
0
0
0
0
0
0
0
0
0
0
0
0
0
0
0
0
0
0
0
0
0
0
0
0
0
0
0
0
0
0
0
0
0
0
0
0
0
0
0
0
0
0
0
0
0
0
0
0
0
0
0
0
0
0
0
0
0
0
0
0
0
0
0
0
0
0
0
0
0
0
0
0
0
0
0
0
0
0
0
0
0
0
0
0
0
0
0
0
0
0
0
0
0
0
0
0
0
0
0
0
0
0
0
0
0
0
0
0
0
0
0
0
0
0
0
0
0
0
0
0
0
0
0
0
0
0
0
0
0
0
0
0
0
0
0
0
0
0
0
0
0
0
0
0
0
0
0
0
0
0
0
0
0
0
0
0
0
0
0
0
0
0
0
0
0
0
0
0
0
0
0
0
0
0
0
0
0
0
0
0
0
0
0
0
0
0
0
0
0
0
0
0
0
0
0
0
0
0
0
0
0
0
0
0
0
0
0
0
0
0
0
0
0
0
-41.046214
-25.331071
-35.708268
0
-63.663785
0
-31.518602
0
0
0
0
0
0
0
0
-30.845231
0
0
0
0
0
0
0
0
0
0
0
-25.363175
0
0
0
0
0
0
0
0
-20.231143
0
0
0
0
-43.417092
0
-35.007341
-45.311811
0
-60.071985
0
0
0
0
0
0
0
0
0
0
0
0
0
0
0
0
0
0
0
0
0
0
0
0
0
0
0
0
0
0
0
0
0
0
0
0
0
0
0
0
0
0
0
0
0
0
0
0
0
0
0
0
0
0
0
0
0
0
0
0
0
0
0
0
0
0
0
0
0
0
0
0
0
0
0
0
0
0
0
0
0
0
0
0
0
0
0
0
0
0
0
0
0
0
0
0
0
0
0
0
0
0
0
0
0
0
0
0
0
0
0
0
0
0
0
0
0
0
0
0
0
0
0
0
0
0
0
0
-31.715199
-16.846926
0
0
-40.224431
-24.701332
-21.93826
0
0
0
0
0
0
0
0
0
0
0
0
0
0
0
0
0
0
0
0
0
-3.4451553
0
0
0
0
0
0
0
0
0
0
0
0
0
0
0
0
0
0
0
0
0
0
0
0
0
0
0
0
0
0
0
0
0
0
0
0
0
0
0
0
0
0
0
0
0
0
0
0
0
0
0
0
0
0
0
0
0
0
0
0
0
0
0
0
0
0
0
0
0
0
0
0
0
0
0
0
0
0
0
0
0
0
0
0
0
0
0
0
0
0
0
0
0
0
0
0
0
0
0
0
0
0
0
0
0
0
0
0
0
0
0
-24.540459
0
0
0
-20.984471
0
0
0
0
-20.238475
0
-15.723035
0
0
-28.418836
0
0
0
-32.431519
0
0
0
0
0
0
0
0
0
0
0
-25.400799
0
-31.031998
0
0
0
0
0
0
0
-9.6048322
-22.606896
-11.767925
-8.4385257
-17.443348
-12.862033
-15.483571
-40.216829
-38.159584
-35.504761
-53.010405
-49.968233
-30.817322
-46.077576
-16.535111
-30.758707
-30.250463
-33.544828
-23.600466
-21.605422
-39.582253
-37.223493
-40.818154
-44.258945
-23.974288
-36.921391
-25.680894
-48.267138
-38.096961
0
-51.938579
-29.180387
-48.229083
-40.468746
-26.415872
-49.219314
-64.950944
-53.558843
-65.430017
-61.709793
-50.701314
-56.298536
-27.320254
-10.445197
-16.548585
-20.499459
-28.655243
-15.836598
-18.759327
0
0
-36.285708
0
0
0
0
0
0
0
0
0
0
0
0
0
0
0
0
0
0
0
-41.07309
0
0
0
0
0
0
0
0
0
0
0
0
0
0
0
0
0
0
0
0
0
0
0
-41.259902
0
-57.339478
0
-50.694796
0
0
0
0
-67.654585
0
0
0
0
0
0
0
0
0
0
0
0
0
0
0
0
0
0
0
0
0
0
0
-33.24674
0
-28.574843
0
0
0
0
0
0
0
0
0
0
0
0
0
0
0
0
0
0
0
0
0
0
0
0
-41.712579
0
0
0
-40.297366
0
0
0
0
0
0
0
0
0
0
0
0
0
0
0
0
0
0
0
-27.211234
-15.092803
0
0
-33.197977
0
0
-17.793353
0
0
0
0
0
0
0
0
0
-57.77067
0
-40.384953
-55.524322
-56.694423
-45.242694
-52.01274
0
0
0
0
0
0
0
-45.436586
-58.091332
-37.390403
-46.202766
-44.892549
-48.729015
-59.472158
-69.973427
-56.499456
-49.811933
-52.960173
-59.450861
-53.77524
-70.579886
0
0
0
0
0
0
0
-69.49865
-67.742046
-54.62171
-54.367474
-68.133247
-63.356752
-54.370781
0
0
0
0
0
0
0
0
0
0
-9.0278472
0
-34.609245
0
0
0
0
-4.2482271
0
0
0
0
0
0
-10.238806
0
-38.248155
-6.6759851
-6.4443882
0
0
0
0
-24.310282
-4.5284644
-2.2076595
0
0
0
0
0
0
-2.6818397
0
0
0
0
0
0
-5.7682471
0
0
0
0
-22.341815
0
0
0
0
0
0
0
0
0
0
0
0
0
0
0
0
0
0
0
0
0
0
0
0
0
0
0
0
0
0
0
0
0
0
0
0
0
0
0
0
0
0
0
0
0
0
0
0
0
0
0
0
0
0
0
0
0
0
0
0
0
0
0
0
0
0
0
0
0
0
0
0
0
0
0
0
0
0
0
0
0
0
0
0
0
0
0
0
0
0
0
0
0
0
0
0
0
0
0
0
0
0
0
0
0
0
0
0
0
0
0
0
0
0
0
0
0
0
0
0
0
0
0
0
0
0
0
0
0
0
0
0
0
0
0
0
0
0
0
0
0
0
0
0
0
0
0
0
0
0
0
0
0
0
0
0
0
0
0
0
0
0
0
0
0
0
0
0
0
0
0
0
-4.5910324
0
-2.6243109
-3.5307508
0
0
0
0
0
0
0
0
0
0
0
0
0
0
0
0
0
0
0
0
0
0
0
0
0
0
0
0
0
0
0
0
0
0
0
0
0
0
0
0
0
0
0
0
0
0
0
0
0
0
0
0
0
0
0
0
0
0
0
0
0
0
0
0
0
0
0
0
0
0
0
0
0
0
0
0
0
0
0
0
0
0
-24.780552
0
-28.677429
0
0
0
0
-16.81069
-10.229071
-9.0786839
-19.344255
-18.543991
-12.091217
-17.225784
-7.3481189
-9.9508522
-23.018538
-13.717511
0
0
0
0
0
0
0
-27.524416
-46.132379
-25.752893
-26.884933
-34.36571
-20.384748
0
0
0
0
0
0
0
0
0
0
0
0
0
0
0
0
0
0
0
0
0
0
0
-5.546112
0
-4.0124109
0
0
0
0
0
0
0
0
0
0
0
0
0
-27.309329
0
-31.981133
0
0
0
0
-15.155584
0
0
0
0
0
0
-18.488638
-11.017822
-21.402244
-9.4198228
-21.851216
-13.603976
-19.648909
-9.0642168
-26.106058
-11.146656
-17.942354
-26.859866
0
-32.181124
-21.414383
-24.193468
-35.454763
-21.900134
-32.278526
-49.965647
-28.988404
-35.415453
-38.177373
-26.729123
-42.434224
-18.004906
-6.9386858
-7.865997
-14.111228
-8.8836576
-16.085615
-14.547159
-5.7033826
-2.8271053
-12.418865
-5.8751216
-11.672221
-2.8468791
-5.5072608
-8.5418358
0
-21.52844
-14.578545
-16.155257
0
0
0
0
0
0
0
0
0
0
0
0
0
0
0
0
0
0
0
0
0
0
0
-8.5772684
-18.375923
-23.147869
-10.978802
-17.431568
-8.2249234
0
-5.6373688
-5.2259318
-9.5924491
0
-10.719491
0
0
0
0
0
-1.6228538
0
0
0
0
0
0
0
0
0
0
0
0
0
-2.6111435
0
0
0
0
0
0
0
0
0
0
-2.8606456
-2.3175621
-11.052804
-4.5273664
-8.4877611
-4.5050089
-1.4938676
0
0
0
0
0
0
0
0
0
0
0
0
0
0
0
0
0
0
0
0
0
-4.3481676
-16.576593
-16.799806
-9.3360073
-12.657008
-6.8427383
0
0
0
0
0
0
0
0
0
0
0
0
0
0
0
0
0
0
0
0
0
0
0
0
0
0
0
0
0
0
0
0
0
0
0
0
0
0
0
0
0
0
0
0
0
0
0
0
0
0
0
0
0
0
0
0
0
0
0
0
0
0
0
0
0
0
0
0
0
0
0
0
0
0
0
0
0
0
0
0
0
0
0
0
0
0
0
0
0
0
0
0
0
0
0
0
0
0
0
0
0
0
0
0
0
0
0
0
0
0
0
0
0
0
0
0
0
0
0
0
0
0
0
0
0
0
0
0
0
0
0
0
0
0
0
0
0
0
0
0
0
0
0
0
0
0
0
0
0
0
0
0
0
0
0
0
0
0
0
0
0
0
0
0
0
0
0
0
0
0
0
0
0
0
0
0
0
0
0
0
0
0
0
0
0
0
0
0
0
0
0
0
0
0
0
0
0
0
0
0
0
0
0
0
0
0
0
0
0
0
0
0
0
0
0
0
0
0
0
0
0
0
0
0
0
0
0
0
0
0
0
0
0
0
0
0
0
0
0
0
0
0
0
0
0
0
0
0
0
0
0
0
0
0
0
0
0
0
0
0
0
0
0
0
0
0
0
0
0
0
0
0
0
0
0
0
0
0
0
0
0
0
0
0
0
0
0
0
0
0
0
0
0
0
0
0
0
0
0
0
0
0
0
0
0
0
0
0
0
0
0
0
0
0
0
0
0
0
0
0
0
0
0
0
0
0
0
0
0
0
0
0
0
0
0
0
0
0
0
0
0
0
0
0
0
0
0
0
0
0
0
0
0
0
0
0
0
0
0
0
0
0
0
0
0
0
0
0
0
0
0
0
0
0
0
0
0
0
0
0
0
0
0
0
0
0
0
0
0
0
0
0
0
0
0
0
0
0
0
0
0
0
0
0
0
0
0
0
0
0
0
0
0
0
0
0
0
0
0
0
0
0
0
0
0
0
0
0
0
0
0
0
0
0
0
0
0
0
0
0
0
0
0
0
0
0
0
0
0
0
0
0
0
0
0
0
0
0
0
0
0
0
0
0
0
0
0
0
0
0
0
0
0
0
0
0
0
0
0
0
0
0
0
0
0
0
0
0
0
0
0
0
0
0
0
0
0
0
0
0
0
0
0
0
0
0
0
0
0
0
0
-21.104143
0
0
0
0
0
0
-0
0
0
0
-17.095638
0
0
0
0
0
0
0
0
0
0
0
0
0
0
0
0
0
0
0
0
0
0
0
0
0
0
0
0
0
0
0
0
0
0
0
0
0
0
0
0
0
0
0
0
0
0
0
0
0
0
0
0
0
0
0
0
0
0
0
0
0
0
0
0
-22.145788
-9.0870703
-20.138153
0
-21.68713
-8.0266908
0
0
0
0
0
0
0
0
0
0
0
0
0
0
0
0
0
-4.82936
0
0
-1.9242538
0
0
0
0
0
0
0
0
-17.243638
-7.9596537
-11.701529
0
-11.465294
-5.6030034
0
0
-7.2289431
0
0
0
0
0
0
-6.2233983
0
0
0
0
0
0
0
0
0
0
0
0
0
0
0
0
0
0
0
0
0
0
0
0
0
0
0
0
0
0
0
0
0
0
0
-41.929381
0
0
0
0
0
0
0
0
0
0
0
0
0
0
0
0
0
0
0
0
0
0
0
0
0
0
0
0
0
0
0
0
0
0
0
0
0
0
0
0
0
0
0
0
-41.666556
0
0
0
0
0
0
0
0
0
0
0
0
0
0
0
0
0
0
0
0
0
0
0
0
0
0
0
0
0
0
0
0
0
0
0
0
0
0
0
0
0
0
0
-46.741456
0
0
0
0
0
0
0
0
0
0
0
0
0
0
0
0
0
0
0
0
0
0
0
0
0
0
0
0
0
0
0
0
0
0
0
0
-46.462808
0
0
0
0
0
0
0
0
0
0
0
0
0
0
0
0
0
0
0
0
0
0
-53.593816
-40.590683
0
0
0
0
-61.221057
0
0
0
0
0
-40.174474
0
-69.430743
0
0
0
0
0
0
0
0
0
0
0
0
0
0
0
0
0
0
0
0
0
0
0
0
0
0
-34.283975
0
0
-0
0
0
0
0
-27.430831
0
0
0
0
0
0
0
0
0
0
0
0
0
0
0
0
0
0
0
0
0
-53.497378
0
0
-40.251837
0
0
0
0
-61.347705
0
-22.589488
0
0
0
-39.099962
-69.764431
0
0
0
0
0
0
0
0
0
0
0
0
0
0
0
0
0
0
0
0
0
0
0
0
0
0
0
0
0
0
0
0
0
0
0
0
0
0
0
0
0
0
0
0
0
0
0
0
0
0
0
0
0
0
0
0
0
0
0
0
0
0
0
0
0
0
0
0
0
-41.399524
0
0
-46.450877
-54.451014
-48.719359
-52.058089
0
0
0
0
0
0
0
0
0
0
0
0
0
0
0
0
0
0
0
0
0
0
0
0
0
0
0
0
0
0
0
0
0
0
0
0
0
0
0
0
0
0
0
0
0
0
0
0
0
-40.338287
-41.519033
-39.400498
-49.600729
-54.166643
-50.751678
-54.040422
0
0
0
0
0
0
0
0
0
0
0
0
0
0
0
0
0
0
0
0
0
0
0
0
0
0
0
0
0
0
0
0
0
0
0
0
0
0
0
0
0
0
0
-45.633072
0
0
0
0
0
0
0
0
0
0
0
0
0
0
0
-49.52494
0
0
0
-38.886076
-37.28599
0
-46.611623
-52.263671
-47.879032
-49.707405
0
0
0
0
0
0
0
0
0
0
0
0
0
0
0
0
0
0
0
0
0
-56.892542
-64.223534
-54.789743
-53.536529
-49.12034
-58.707838
-60.817186
0
0
0
0
0
0
0
-31.825092
0
0
-35.263759
-29.524744
0
-40.356472
0
0
0
0
0
0
0
0
0
0
0
0
0
0
0
0
0
0
0
0
0
-42.031646
-35.201563
0
-54.875558
0
0
-48.173755
0
0
0
0
0
0
0
-55.218396
-67.257374
-60.638901
-66.397678
-57.803369
-60.059984
-61.993894
0
0
0
0
0
0
0
0
0
0
0
0
0
0
0
0
0
0
0
0
0
0
0
0
-33.876169
0
0
0
0
0
0
0
0
0
0
-48.521267
-35.964783
-32.273066
-44.363277
-35.030964
-46.680744
-44.435249
0
0
0
0
0
0
0
0
0
0
0
0
0
0
0
-0
0
-9.0031563
0
-8.8975543
-10.528678
0
0
0
-26.913076
0
0
-17.771735
0
0
0
0
0
0
0
0
0
0
0
0
0
0
-21.770446
-27.812743
-19.034144
-33.697149
-18.681472
-34.673338
-21.91767
0
0
0
0
0
0
0
0
0
0
-11.482777
0
0
0
-0
0
0
-9.9415265
0
0
0
0
0
0
0
0
0
0
0
0
0
0
0
0
0
0
0
0
0
0
0
0
0
0
0
0
0
0
0
0
0
0
0
0
0
0
0
0
0
0
0
0
0
0
0
0
0
0
0
0
0
0
0
0
0
0
0
0
-52.814611
0
-48.569194
0
0
-47.061884
0
0
0
0
0
0
0
-38.47841
-40.020726
-38.171157
-49.026383
-51.913507
-49.297635
-51.711481
0
0
0
0
0
0
0
-39.925795
0
0
0
0
-51.701147
0
-60.202111
0
-60.542847
0
-52.371656
-63.80759
0
0
0
0
0
0
0
0
-60.177862
-63.859895
-61.163422
-53.464085
-53.113438
-60.401684
-63.700829
0
0
0
0
0
0
0
-31.026164
0
-30.327438
-38.449577
-28.791166
-39.34145
-28.147821
0
0
0
-37.698958
0
0
0
-41.516869
0
0
-48.630588
0
-54.118724
0
-57.995993
0
-69.283311
0
-62.358708
-67.056017
0
-45.886535
-34.292528
-53.879508
-38.140523
-46.955924
-33.486763
-52.647856
-59.112598
-66.949949
-69.76082
-65.440767
-60.455976
-64.130518
-66.861137
-44.988027
0
0
0
0
0
0
0
0
0
0
0
0
0
0
0
0
0
0
0
0
0
0
0
0
0
0
0
0
0
0
0
0
0
0
0
0
0
0
0
0
0
0
0
0
0
0
0
0
0
0
0
0
0
0
0
0
0
0
0
0
0
0
0
0
0
-13.752943
-7.5180856
-14.228538
-6.1913075
-5.5611914
-2.9641659
-3.3084311
-0.58618645
0
-1.0021151
0
0
-0.46218958
0
0
0
0
0
0
0
0
0
0
0
0
0
0
0
0
0
0
0
0
0
0
0
-0
-0
-1.4520717
-2.9543589
-1.0969813
-0.48355407
-11.542868
-4.2301658
-7.8143425
-5.4090522
-3.7407454
-2.0246714
-2.937368
0
-1.1613853
-0.96748994
0
0
-0.56388848
0
0
0
0
0
0
0
0
0
0
0
0
-0.33521547
0
0
0
0
0
0
0
0
0
0
0
0
0
0
0
0
0
0
0
0
0
0
0
0
0
0
0
0
0
0
0
0
0
0
0
0
0
0
0
0
0
0
0
0
0
0
0
0
0
0
0
0
0
0
0
0
0
0
0
0
0
0
0
0
0
0
0
0
0
0
0
0
0
0
0
0
0
0
0
0
0
0
0
0
0
0
0
0
0
0
0
0
-22.904861
0
0
-23.643161
-12.224338
-12.10985
0
0
0
0
0
0
0