/*--------------------------------*- C++ -*----------------------------------*\
  =========                 |
  \\      /  F ield         | OpenFOAM: The Open Source CFD Toolbox
   \\    /   O peration     | Website:  https://openfoam.org
    \\  /    A nd           | Version:  8
     \\/     M anipulation  |
\*---------------------------------------------------------------------------*/
/*   Windows 32 and 64 bit porting by blueCAPE: http://www.bluecape.com.pt   *\
|  Based on Windows porting (2.0.x v4) by Symscape: http://www.symscape.com   |
\*---------------------------------------------------------------------------*/
FoamFile
{
    version     2.0;
    format      ascii;
    class       volScalarField;
    location    "0/Building";
    object      ws;
}
// * * * * * * * * * * * * * * * * * * * * * * * * * * * * * * * * * * * * * //

dimensions      [1 -3 0 0 0 0 0];

internalField   uniform 2.5;

boundaryField
{
    sides
    {
        type            zeroGradient;
    }
    buildings_to_air
    {
        type            zeroGradient;
    }
    interior
    {
        type            zeroGradient;
    }
    procBoundary7to6
    {
        type            processor;
        value           uniform 2.5;
    }
    procBoundary7to8
    {
        type            processor;
        value           uniform 2.5;
    }
    procBoundary7to9
    {
        type            processor;
        value           uniform 2.5;
    }
}


// ************************************************************************* //
