/*--------------------------------*- C++ -*----------------------------------*\
  =========                 |
  \\      /  F ield         | OpenFOAM: The Open Source CFD Toolbox
   \\    /   O peration     | Website:  https://openfoam.org
    \\  /    A nd           | Version:  8
     \\/     M anipulation  |
\*---------------------------------------------------------------------------*/
/*   Windows 32 and 64 bit porting by blueCAPE: http://www.bluecape.com.pt   *\
|  Based on Windows porting (2.0.x v4) by Symscape: http://www.symscape.com   |
\*---------------------------------------------------------------------------*/
FoamFile
{
    version     2.0;
    format      ascii;
    class       polyBoundaryMesh;
    location    "constant/air/polyMesh";
    object      boundary;
}
// * * * * * * * * * * * * * * * * * * * * * * * * * * * * * * * * * * * * * //

12
(
    left
    {
        type            patch;
        nFaces          0;
        startFace       6606;
    }
    right
    {
        type            patch;
        nFaces          0;
        startFace       6606;
    }
    back
    {
        type            patch;
        nFaces          0;
        startFace       6606;
    }
    front
    {
        type            patch;
        nFaces          34;
        startFace       6606;
    }
    bottom
    {
        type            wall;
        inGroups        List<word> 1(wall);
        nFaces          84;
        startFace       6640;
    }
    top
    {
        type            patch;
        nFaces          18;
        startFace       6724;
    }
    tower
    {
        type            mappedWall;
        inGroups        List<word> 
2
(
wall
mappedPatch
)
;
        nFaces          408;
        startFace       6742;
        sampleMode      nearestPatchFace;
        sampleRegion    tower;
        samplePatch     buildings_to_air;
    }
    procBoundary19to5
    {
        type            processor;
        inGroups        List<word> 1(processor);
        nFaces          113;
        startFace       7150;
        matchTolerance  0.0001;
        myProcNo        19;
        neighbProcNo    5;
    }
    procBoundary19to6
    {
        type            processor;
        inGroups        List<word> 1(processor);
        nFaces          140;
        startFace       7263;
        matchTolerance  0.0001;
        myProcNo        19;
        neighbProcNo    6;
    }
    procBoundary19to9
    {
        type            processor;
        inGroups        List<word> 1(processor);
        nFaces          60;
        startFace       7403;
        matchTolerance  0.0001;
        myProcNo        19;
        neighbProcNo    9;
    }
    procBoundary19to17
    {
        type            processor;
        inGroups        List<word> 1(processor);
        nFaces          111;
        startFace       7463;
        matchTolerance  0.0001;
        myProcNo        19;
        neighbProcNo    17;
    }
    procBoundary19to18
    {
        type            processor;
        inGroups        List<word> 1(processor);
        nFaces          198;
        startFace       7574;
        matchTolerance  0.0001;
        myProcNo        19;
        neighbProcNo    18;
    }
)

// ************************************************************************* //
