/*--------------------------------*- C++ -*----------------------------------*\
  =========                 |
  \\      /  F ield         | OpenFOAM: The Open Source CFD Toolbox
   \\    /   O peration     | Website:  https://openfoam.org
    \\  /    A nd           | Version:  8
     \\/     M anipulation  |
\*---------------------------------------------------------------------------*/
/*   Windows 32 and 64 bit porting by blueCAPE: http://www.bluecape.com.pt   *\
|  Based on Windows porting (2.0.x v4) by Symscape: http://www.symscape.com   |
\*---------------------------------------------------------------------------*/
FoamFile
{
    version     2.0;
    format      ascii;
    class       scalarListList;
    location    "constant/vegetation";
    object      kcLAIboundary;
}
// * * * * * * * * * * * * * * * * * * * * * * * * * * * * * * * * * * * * * //


5
(

485
(
0
0
0
0.0033562969
0
0
0.034249415
0
0
0.026035639
0
0
0.03366334
0.011843691
1.6364121
1.8404163
0.17872226
0.34764531
1000
0.0030563574
1.1999857
0
0
0
2.2170597
0.12104387
0.36345231
2.3167483
1.2034806
0
0.092159741
1.5472227
0.35547055
1.4168634
0.058669982
2.2936167
1.753609
0.2909862
2.2749509
2.198315
0
0.84041836
1.2703229
2.0477081
0.77252803
0.44329085
0
0.38307421
0.072884878
0.0045407908
0.52231892
0
0
0
0
0
0
0
0
0
0
0
0
1000
0
0
1000
0
0
0
0
0
0
0
0
0
0
0
0
0
0
0
0
0
0
0
0
0
0
0
1000
1000
1000
1000
0
0
1000
0
0
0
0
0
0
0
0
0
0
0
0
0
0
0
0
1000
1000
0
0
0
0
0
0
0
0
0
0
0
0
0
0
0
0
0
0
0
1000
0
1000
1000
0
0
1000
0
1000
1000
0
0
1000
0
0
0
0
0
0
0
0
0
0
0
1000
0
1000
0
0
0
0
0
1000
0
0
0
0
0
0
0
0
0
0
0
0
0
0
0
0
0
0
0
0
0
0
0
0
0
0
0
0
0
0
0
0
0
0
0
0
0
0
0
0
0
0
0
0
0
0
0
0
0
0
0
0
0
0
0
0
0
0
0
0
0
0
0
0
0
0
0
0
0
1000
0
0
1000
0
0
0
1000
0
0
0
1000
0
0
0
1000
0
0
0
1000
0
0
0
1000
0
0
1000
0
0
0
1000
0
0
0
0
1000
0
0
0
1000
0
0
0
0
0
0
0
0
0
0
1000
1000
1000
1000
1000
1000
1000
1000
1000
1000
1000
1000
1000
0
0
0
0
0
0
0
0
0
0
1000
1000
1000
1000
0
0
0
0
1000
1000
0
0
0
0
0
0
0
0
0
0
0
0
0
0
0
0
0
0
0
0
0
0
0
0
0
0
0
0
0
0
0
0
0
0
0
0
0
0
0
0
0
0
0
0
0
0
0
0
0
0
0
0
0
0
0
0
0
0
0
0
0
0
0
0
0
0
0
0
0
0
0
0
0
0
0
0
0
0
0
0
0
1000
0
0
1000
0
1000
0
0
1000
0
0
1000
0
0
1000
0
0
1000
0
0
1000
0
0
1000
0
0
1000
0
0
1000
0
0
0
1000
1000
1000
1000
1000
1000
0
0
0
0
0
1000
1000
0
0
1000
0
0
0
0
0
0
0
0
0
0
0
0
0
0
0
0
0
0
0
0
0
0
0
0
0
0
0
0
0.53817174
0.404809
1.0266702
0.31090219
0.8534496
1.3537033
0.28740772
0.35019712
)


485
(
0
0
0
0.26058896
0
0
0.00058621688
0.018682276
0.0067261312
0.83040295
0
0.017176704
0.65826828
0.57849002
1.7488868
1.7549354
0.089463271
0.48716371
0.10693347
4.860748e-05
0.44068762
0
0
0
1.4761052
0.0066439415
0.42908959
2.1841703
1.7075618
0
0.038611318
0.55941861
0.13457468
1.5992885
0.11945888
1.413485
0.99764732
0.20418101
2.0507672
2.3609359
0.00010182103
0.91682348
0.33037883
0.97907784
0.28857147
0.47263815
0.046030595
1.6850924
1.3897267
0.0013758812
0.96321004
0
0
0
0
0.022429872
0.035166797
0.0013895146
0
0.0041254235
0.11798875
0.0012486955
0.16128979
1000
0.13931146
0.24816423
1000
0.20616159
0.14734572
0.021610053
0.010186679
0.03121569
0.048323706
0.014963843
0
0
0
0.021313842
0.0071047443
0.0041562913
0.0041051921
0.030611515
0.076323732
0.10294505
0.10500015
0
0
0.0020504811
0
0.0020813699
1000
1000
1000
1000
0.15019989
0.14845741
1000
0.1746562
0.15806025
0.012407028
0.043237482
0.0048618322
0
0.012433206
0.0063644654
0.0062321939
0.043704699
0.073091748
0.073440241
0.0040822618
4.7388789e-05
0
0.00015960133
1000
1000
0
0
0
0
0
0.0054038421
0
0
0.013854755
0
0
0.020277939
0.0039153962
0.028684426
0.098772437
0
0
0.0021119718
0
1000
0
1000
1000
0
0
1000
0.12945479
1000
1000
0.024691722
0.10907352
1000
0
0
0
0
0
0
0
0
0
0
0
1000
0
1000
0
0
0
0
0
1000
0
0
0
0
0
0
0
0
0
0
0
0
0
0
0
0
0.018283194
0.0015681629
0.0035179296
0.00040245981
0
0.0020261685
0
0
0
0.025388192
0.024174476
0.08774083
0
0
0
0
0
0
0
0
0
0
0
0
0
0
0
0
0
0
0
0
0
0
0
0
0
0
0
0
0
0
0
0
0
0
0
0
0
0
0
0
0
1000
0
0
1000
0
0
0
1000
0
0
0
1000
0
0
0
1000
0
0
0
1000
0
0
0
1000
0
0
1000
0.0029770302
0.0011545896
0
1000
0.024118432
0.024638161
0.052306412
0.097745783
1000
0.080912571
0.10312307
0.12431009
1000
0.12822757
0
0
0.012290355
0.0058211061
0.043365281
0.07025572
0.0022498302
0
0.00041147623
1000
1000
1000
1000
1000
1000
1000
1000
1000
1000
1000
1000
1000
0
0
0
0
0
0
0
0
0
0
1000
1000
1000
1000
0
0
0
0
1000
1000
0
0
0
0
0
0
0
0
0
0
0
0
0
0
0
0
0
0
0
0
0.051070613
0.017294796
0.063588532
0.071768392
0
0
0
0
0
0
0
0
0
0
0
0
0
0
0
0
0
0.00035703514
0
0.011563362
0.015410848
0.005250758
0.0028905598
0
0
0.00063719165
0.0017794275
0.041095282
0.020712185
0
0
0
0
0
0
0
0
0
0
0
0
0
0
0
0
0
0
0
0
0
0
0
0
0
0
0
0
1000
0
0
1000
0
1000
0
0
1000
0
0
1000
0
0
1000
0
0
1000
0
0
1000
0
0
1000
0
0
1000
0.047093777
0.049834398
1000
0.071757876
0.076332156
0
1000
1000
1000
1000
1000
1000
0
0
0
0
0
1000
1000
0
0
1000
0
0
0
0
0
0
0
0
0
0.0373131
0.050792683
0
0
0
0
0
0
0
0
0
0.0099641978
0.0052131814
0
0.00069318655
0.035043515
0
0
0
0.45604537
0.44189681
0.42773346
0.25290426
0.91132876
1.4025583
0.36126547
0.28737914
)


485
(
0
0
0
1.358157
0
0
0.1195056
0.0036561744
0.050058175
1.8509426
0
0.063214898
1.1564043
1.7842486
0.98893217
1.3027198
0.0046557683
0.48805055
0.84510302
0.26293038
0.0066791516
0
0
0
0.59756612
0.37357853
0.28372347
1.306335
1.8048243
0.0036075946
0.0070131098
0.26006498
0.052486537
1.5745758
0.13955744
0.60113461
0.4366865
0.051640708
1.230043
1.6188037
0.51554865
0.59931789
0.17532832
0.45199591
0.11947087
0.25596493
0.2950289
2.236667
2.031055
0.020348226
0.26827248
0
0
0
0
0.73622424
0.91773729
0.019262312
0.0079860786
0.033585569
1.2681206
0.022441812
1.3012074
1000
0.88595327
1.4719086
1000
1.3529705
0.94225779
0.4314097
0.48755153
0.55297889
1.0378848
0.029238111
0.0015418779
0.0030298727
0.00028762786
0.39355547
0.24996732
0.042552426
0.042665451
0.51477655
1.1587756
0.87210932
0.83401708
0.0014231286
0.012256484
0
0.00022071479
0
1000
1000
1000
1000
1.0774003
0.95977866
1000
1.2574954
1.0359909
0.29073903
0.67362202
0.0027460463
0
0.26444926
0.16110869
0.14712603
0.63650656
0.79369514
0.75996425
0.0025758943
0
0
0
1000
1000
0
0
0
0
0.00012660342
0.10437355
0
0.027228179
0.18480789
0
0
0.34164123
0.049117136
0.44445212
0.71600022
0.001126172
6.3047443e-05
0
0
1000
0.0033190236
1000
1000
0.047586322
0.0089528908
1000
0.76175665
1000
1000
0.20324372
0.63536518
1000
0
0
0
0
0
0
0
0
0
0
0
1000
0
1000
0
0
0
0
0
1000
0
0
0.0071580035
0
0
0
0
0
0.0036309398
0
0
0
0
0
0
0.00076574057
0.30123717
0.042290654
0.053716158
0
0
0
0.015143743
0.037660483
0.0099960993
0.39037088
0.18941238
0.60621083
0
0
0
0
0
0
0
0
0
0
0
0
0
0
0
0
0
0
0
0
0
0
0
0
0
0
0
0
0
0
0
0
0
0
0
0
0
0
0
0
0
1000
0
0
1000
0
0
0
1000
0
0
0
1000
0
0
0
1000
0
0
0.0014337247
1000
0
0.0024714556
0.003948444
1000
0.0064969891
0.015451499
1000
0.046329265
0.051948445
0.021898722
1000
0.16835213
0.20611256
0.3553977
0.6372305
1000
0.5013144
0.66764427
0.85604015
1000
0.8177785
0
0
0.24051342
0.14289767
0.55061635
0.66074577
0.0021391341
0
0
1000
1000
1000
1000
1000
1000
1000
1000
1000
1000
1000
1000
1000
0
0
0
0
0
0
0
0
0
0
1000
1000
1000
1000
0
0
0
0
1000
1000
0
0
0.0053536507
0
0
0
0
0
0
0
0
0.0036129659
0
0
0
0
0.023761903
0.03332839
0.016708644
0.010321157
0.33718204
0.16948223
0.5748795
0.47760743
0
0
0
0
0
0
0
0
0
0
0
0
0
0
0
0
0
0.0015818469
0.00043998982
0.21501609
0.25197039
0.13246525
0.051681747
0
0
0
0
0.48120624
0.32128557
0
0
0
0
0
0
0
0
0
0
0
0
0
0
0
0
0
0
0
0
0
0
0
0
0
0
0
0
1000
0
0
1000
0
1000
0
0
1000
0
0
1000
0
0
1000
0
0
1000
0
0
1000
0.0073282212
0.011387502
1000
0.011572832
0.017142169
1000
0.3085013
0.37408282
1000
0.46571373
0.52556123
0
1000
1000
1000
1000
1000
1000
0
0
0
0
0
1000
1000
0
0
1000
0
0
0
0
0
0
0
0.025199421
0.017845704
0.315259
0.44634769
0
0
0
0
0
0
0
0
0.0010626047
0.17976103
0.11614959
0
0
0.38824445
0
0
0
0.44013811
0.33700831
0.28454763
0.1676026
1.2966205
1.5332341
0.41654137
0.37935768
)


485
(
0
0
0
1.8066577
0
0
1000
0
0
1.558883
0
0.29400962
0.51487721
1.8832752
0.36432786
0.8455742
4.5666884e-05
0.39000125
0.79067879
1000
1000
0
0.0024999907
0
1000
1000
0.1858896
0.90073883
1.3414629
1.3738562e-06
1000
1000
1000
1.01689
0.32006409
1000
1000
1000
1.0670227
1.0249352
1000
1000
1000
1000
1000
1000
0.16183401
1.7200968
1.4869402
0
0.0088400982
0
0
0
0
1.6795838
1.7446637
4.8821767e-05
7.2704751e-06
0.43526105
1.8353021
0.19722525
1.7749279
1000
1.7175843
1.6215535
1000
1.7163155
1.7187553
1.4819795
1.2917453
1.5889821
1.8074916
9.23402e-05
6.9652375e-05
0.056358893
0.0013423375
1.4621937
0.8622742
0.41939987
0.41515293
1.5738817
1.8681189
1.7665684
1.7543254
6.444766e-05
0.12618802
0.1450561
0.0022614108
0.13974877
1000
1000
1000
1000
1.4849976
1.6804424
1000
1.5013788
1.6812547
1.1866411
1.6932293
0.00013944231
0.048111964
1.1744857
0.80179784
0.79263561
1.683462
1.7934937
1.7904266
0.00013046749
0.095943173
0.047070784
0.092891355
1000
1000
0
0
0
0
0
0.58149453
0.0076941513
0.39663175
0.80473824
0
0
1.3567113
0.39638844
1.4767894
1.6899303
5.12443e-05
0.0043224377
0.12583365
0
1000
0.036658329
1000
1000
0.58121105
0.05928046
1000
1.6777057
1000
1000
0.81117878
1.4932797
1000
0
0
0
0
0
0
0
0
0
0
0
1000
0
1000
0
0
0
0
0
1000
0
0
0.23889732
0.0032701611
0
0
0
0.024513181
0.037781083
0
0
0
0
0
0
3.4698501e-05
1.1969899
0.27736053
0.36367852
0.023957136
0.0061323158
0.10511918
0.0672558
0.58365272
0.061691064
1.3153073
0.81738936
1.5075304
0
0
0
0
0
0
0
0
0
0
0
0
0
0
0
0
0
0
0
0
0
0
0
0
0
0
0
0
0
0
0
0
0
0
0
0
0
0
0
0
0
1000
0
0
1000
0
0
0
1000
0
0
0
1000
0
0
0
1000
0
0
0.019447418
1000
0.014377014
0.028854228
0.03283658
1000
0.048023949
0.1230554
1000
0.38767377
0.53681447
0.35169391
1000
0.56560262
0.77425324
1.0459102
1.2627698
1000
1.2771847
1.4839903
1.4448338
1000
1.6712701
0
0.0067413971
1.0967629
0.74364243
1.5969696
1.709006
0.00010702373
0.043799766
0.084308172
1000
1000
1000
1000
1000
1000
1000
1000
1000
1000
1000
1000
1000
0
0
0
0
0
0
0
0
0
0
1000
1000
1000
1000
0
0
0
0
1000
1000
0
0
0.015788996
0.11749186
0.0092053163
0
0
0
0
0
0.014206055
0.039116529
0
0
0
0
0.35055998
0.58561049
0.11823421
0.063350349
1.0560295
0.81008849
1.5258475
1.2900331
0
0
0
0
0
0
0
0
0
0
0
0
0
0
0
0
0
7.6051881e-05
1.8978756e-05
0.97889614
1.0224957
0.66841596
0.31526726
0.038102323
0.0062409644
0.071099929
0.081535214
1.4307078
1.1310755
0
0
0
0
0
0
0
0
0
0
0
0
0
0
0
0
0
0
0
0
0
0
0
0
0
0
0
0
1000
0
0
1000
0
1000
0
0
1000
0
0
1000
0
0
1000
0
0
1000
0.0076686957
0.011294757
1000
0.08152904
0.1108515
1000
0.2262695
0.31554366
1000
0.78773547
1.0322964
1000
1.0234642
1.2651537
0
1000
1000
1000
1000
1000
1000
0
0
0
0
0
1000
1000
0
0
1000
0
0
0
0
0.013573667
0
0
0.34443935
0.11722332
1.0579086
1.2908914
0
0
0
0
0
0
0
0
4.5501047e-05
0.83637912
0.58240182
0.030862296
0.054792761
1.2259973
0
0
0
0.36608193
0.35144657
0.37004983
0.11540794
1.4580375
1.3336723
0.6046148
0.3566875
)


485
(
0
0
0
1000
0
0
1000
0
1000
0.90107234
0
1000
0
1000
0.11491372
1000
1000
1000
0.052085527
0.041582986
0.081032682
0
1000
0
1000
1000
1000
1000
1000
1000
1000
1000
1000
1000
1000
1000
1000
1000
1000
1000
1000
1000
0.56441206
1000
1000
1000
0
1000
1000
1000
0
0
0
0
0
1000
1000
1000
1000
1000
1000
1000
1000
0.65607648
1000
0.76865391
0.57757868
1000
1000
1000
1000
1000
1000
1000
1000
1000
1000
1000
1000
1000
1000
1000
1000
1000
1000
1000
1000
1000
1000
1000
0.62664521
0.70753293
0.71099003
0.69124941
0.80782221
1000
0.63831926
0.74427366
1000
1000
1000
1000
1000
1000
1000
1000
1000
1000
1000
1000
1000
1000
1000
0.70357868
0.70861182
0.00275268
0.0033258761
0
0
0
1.319701
0.14644429
1.0506294
1.4658997
0
0
1000
1000
1000
1000
1000
1000
1000
0
0
0.083496404
0.020642723
0.27953428
0.91906851
0.22830308
0.034499215
1000
0.71942616
0.39712625
1.108322
1.3522192
0.7312549
0
0
0
0
0
0
0
0
0
0
0
0
0
0
0
0
0
0
0
0
0
4.5037851e-05
0.81199411
0.077694596
0
0
0
0.076193278
0.092193852
0
0
0
0
0
0
0.00070708302
1.5934608
0.92196971
0.9896744
0.36767181
0.12897723
0.65340493
0.44542708
1.0189682
0.25674966
1.6291801
1.2118702
1.4571713
0
0
0
0
0
0
0
0
0
0
0
0
0
0
0
0
0
0
0
0
0
0
0
0
0
0
0
0
0
0
0
0
0
0
0
0
0
0
0
0
0
0
0
0
0
0
0
0
0
0
0
0
0
0
0
0
0
0
0.016212685
0.046636884
0.033309346
0.04995277
0.068219665
0.12378943
0.075186503
0.18280621
0.46964342
0.38580775
0.52202853
0.74178662
0.70922191
0.52860465
0.67422902
0.91339827
1.2956956
0.85702057
0.7308092
1.3612267
1.1243376
0.84001187
0.71627288
1000
0.0013858067
0.038391453
1000
1000
1000
1000
1000
1000
1000
0
0
0.027116019
0.006248531
0.32422291
0.18629271
0.089177694
0.040983939
0.7185044
0.46469244
0.53688354
0.67155448
0.7312746
0
0
0
0
0
0
0
0
0
0
0
0
0
0
0
0
0
0
0
0
0.0001061667
0.00047028684
0.3297829
0.53223088
0.19444155
0.02841997
0
0
0.018233428
0
0.055301772
0.1007904
0
0
0
0
0.79622364
1.109609
0.52744764
0.27803327
1.404003
1.2961084
1.5615491
1.4689341
0
0
0
0
0
0
0
0
0
0
0
0
0
0
0
0
0
0
0.00031108125
1.5583971
1.5681029
1.3256122
0.94354157
0.25706881
0.11888529
0.38500573
0.6282612
1.6645918
1.6194868
0
0
0
0
0
0
0
0
0
0
0
0
0
0
0
0
0
0
0
0
0
0
0
0
0
0
0
0
0
0
0
0
0
0
0
0
0
0
0
0
0
0
0.0039392904
0.0089195378
0.013173105
0.018893177
0.028047113
0.040965175
0.17628765
0.25452371
0.37506288
0.2735654
0.38142959
0.5634689
0.6698699
0.82471001
1.0825519
0.7459095
0.87304843
1.138725
0.017661723
0
0.012710725
0.23088212
0.13368415
0.60513002
0.74167905
0
0
0
0
0
0
0
0
0
0
0.0011972038
0.20859763
0.069876173
0.020944328
0.059582967
0
0
0.86951619
0.58485867
1.5057849
1.5843614
0
0
0
0
0
0
0
0
0
1.5131895
1.2811615
0.24596823
0.36422262
1.6784312
0
0
0
1000
0.37799675
1000
1000
1000
1000
0.83818734
0.39369175
)

)


// ************************************************************************* //
