/*--------------------------------*- C++ -*----------------------------------*\
  =========                 |
  \\      /  F ield         | OpenFOAM: The Open Source CFD Toolbox
   \\    /   O peration     | Website:  https://openfoam.org
    \\  /    A nd           | Version:  8
     \\/     M anipulation  |
\*---------------------------------------------------------------------------*/
/*   Windows 32 and 64 bit porting by blueCAPE: http://www.bluecape.com.pt   *\
|  Based on Windows porting (2.0.x v4) by Symscape: http://www.symscape.com   |
\*---------------------------------------------------------------------------*/
FoamFile
{
    version     2.0;
    format      ascii;
    class       scalarListList;
    location    "constant/vegetation";
    object      solarLoadFineFaces;
}
// * * * * * * * * * * * * * * * * * * * * * * * * * * * * * * * * * * * * * //


5
(

1049
(
717.08284
717.08284
717.08284
717.08284
717.08284
717.08284
717.08284
717.08284
717.08284
717.08284
717.08284
717.08284
717.08284
717.08284
717.08284
717.08284
717.08284
717.08284
717.08284
717.08284
717.08284
717.08284
717.08284
717.08284
717.08284
717.08284
717.08284
139.59973
113.83785
717.08284
717.08284
506.51101
717.08284
717.08284
717.08284
717.08284
0
717.08284
215.98429
717.08284
717.08284
717.08284
717.08284
717.08284
717.08284
113.83785
78.111061
717.08284
717.08284
139.59973
717.08284
717.08284
717.08284
498.56754
717.08284
70.699823
215.23076
139.59973
717.08284
215.23076
70.699823
717.08284
717.08284
653.95048
152.62267
717.08284
717.08284
173.87349
173.87349
113.83785
717.08284
717.08284
717.08284
70.699823
72.354285
124.1614
78.111061
72.354285
70.699823
536.03806
717.08284
717.08284
73.717519
173.87349
79.589038
717.08284
717.08284
717.08284
717.08284
717.08284
717.08284
717.08284
717.08284
113.83785
73.717519
309.44272
717.08284
152.62267
201.31452
717.08284
717.08284
717.08284
309.44272
717.08284
717.08284
92.525406
331.18043
717.08284
72.354285
73.717519
73.717519
92.525406
92.525406
72.354285
124.1614
124.1614
124.1614
717.08284
717.08284
124.1614
0
0
717.08284
717.08284
717.08284
717.08284
717.08284
0
717.08284
717.08284
717.08284
717.08284
717.08284
717.08284
717.08284
717.08284
717.08284
717.08284
717.08284
717.08284
717.08284
717.08284
717.08284
717.08284
717.08284
717.08284
717.08284
717.08284
717.08284
717.08284
717.08284
717.08284
717.08284
717.08284
717.08284
717.08284
717.08284
717.08284
717.08284
717.08284
717.08284
717.08284
717.08284
717.08284
717.08284
717.08284
717.08284
717.08284
717.08284
0
717.08284
717.08284
717.08284
215.98429
717.08284
215.98429
717.08284
717.08284
717.08284
139.59973
717.08284
717.08284
717.08284
717.08284
717.08284
717.08284
717.08284
717.08284
717.08284
717.08284
717.08284
79.589038
79.589038
79.589038
152.62267
502.56291
92.525406
717.08284
717.08284
717.08284
72.354285
78.111061
78.111061
78.111061
78.111061
72.354285
717.08284
717.08284
717.08284
717.08284
717.08284
717.08284
717.08284
717.08284
717.08284
201.31452
201.31452
152.62267
717.08284
717.08284
717.08284
717.08284
717.08284
717.08284
717.08284
717.08284
717.08284
717.08284
717.08284
717.08284
717.08284
717.08284
717.08284
717.08284
717.08284
717.08284
717.08284
717.08284
717.08284
717.08284
717.08284
717.08284
80.639504
80.639504
80.639504
80.639504
80.639504
80.639504
80.639504
80.639504
0
80.639504
80.639504
0
80.639504
80.639504
80.639504
80.639504
80.639504
80.639504
80.639504
80.639504
80.639504
80.639504
80.639504
80.639504
80.639504
80.639504
80.639504
80.639504
80.639504
80.639504
80.639504
80.639504
80.639504
80.639504
80.639504
0
0
0
0
80.639504
80.639504
0
80.639504
80.639504
80.639504
80.639504
80.639504
80.639504
80.639504
80.639504
80.639504
80.639504
80.639504
80.639504
80.639504
80.639504
80.639504
80.639504
0
0
80.639504
80.639504
80.639504
80.639504
80.639504
80.639504
80.639504
80.639504
80.639504
80.639504
80.639504
80.639504
80.639504
80.639504
80.639504
80.639504
80.639504
80.639504
80.639504
0
80.639504
0
0
80.639504
80.639504
0
80.639504
0
0
80.639504
80.639504
0
80.639504
717.08284
80.639504
717.08284
717.08284
80.639504
80.639504
717.08284
717.08284
80.639504
80.639504
0
80.639504
0
80.639504
717.08284
80.639504
717.08284
80.639504
0
717.08284
80.639504
80.639504
80.639504
80.639504
80.639504
80.639504
80.639504
80.639504
80.639504
80.639504
80.639504
80.639504
80.639504
80.639504
80.639504
80.639504
80.639504
80.639504
80.639504
80.639504
80.639504
80.639504
80.639504
80.639504
80.639504
80.639504
80.639504
717.08284
717.08284
80.639504
80.639504
80.639504
717.08284
717.08284
717.08284
80.639504
717.08284
717.08284
80.639504
717.08284
717.08284
80.639504
717.08284
717.08284
80.639504
717.08284
717.08284
717.08284
80.639504
717.08284
717.08284
717.08284
80.639504
717.08284
717.08284
717.08284
80.639504
717.08284
717.08284
717.08284
80.639504
717.08284
717.08284
717.08284
80.639504
717.08284
717.08284
717.08284
0
717.08284
80.639504
0
80.639504
80.639504
80.639504
0
80.639504
80.639504
80.639504
0
80.639504
80.639504
80.639504
0
80.639504
80.639504
80.639504
0
80.639504
80.639504
80.639504
0
80.639504
80.639504
0
80.639504
80.639504
80.639504
0
80.639504
80.639504
80.639504
80.639504
0
80.639504
80.639504
80.639504
0
80.639504
80.639504
80.639504
80.639504
80.639504
80.639504
80.639504
80.639504
80.639504
80.639504
0
0
0
0
0
0
0
0
0
0
0
0
0
80.639504
80.639504
80.639504
80.639504
80.639504
80.639504
80.639504
80.639504
80.639504
80.639504
0
0
0
0
80.639504
80.639504
80.639504
80.639504
0
0
80.639504
80.639504
80.639504
80.639504
80.639504
80.639504
80.639504
80.639504
80.639504
80.639504
80.639504
80.639504
80.639504
80.639504
80.639504
80.639504
80.639504
80.639504
80.639504
80.639504
80.639504
80.639504
80.639504
80.639504
717.08284
717.08284
717.08284
717.08284
717.08284
717.08284
717.08284
717.08284
717.08284
717.08284
717.08284
80.639504
80.639504
80.639504
80.639504
80.639504
80.639504
80.639504
80.639504
80.639504
80.639504
80.639504
80.639504
80.639504
80.639504
80.639504
80.639504
80.639504
80.639504
80.639504
80.639504
80.639504
80.639504
80.639504
80.639504
80.639504
717.08284
80.639504
717.08284
717.08284
80.639504
717.08284
717.08284
80.639504
717.08284
717.08284
80.639504
717.08284
717.08284
80.639504
717.08284
717.08284
80.639504
717.08284
717.08284
80.639504
717.08284
0
717.08284
80.639504
0
717.08284
0
80.639504
80.639504
0
80.639504
80.639504
0
80.639504
80.639504
0
80.639504
80.639504
0
80.639504
80.639504
0
80.639504
80.639504
0
80.639504
80.639504
0
80.639504
80.639504
0
80.639504
80.639504
80.639504
0
0
0
0
0
0
80.639504
80.639504
80.639504
80.639504
80.639504
0
0
80.639504
80.639504
0
80.639504
80.639504
80.639504
80.639504
80.639504
80.639504
80.639504
80.639504
80.639504
80.639504
80.639504
717.08284
717.08284
717.08284
717.08284
717.08284
80.639504
80.639504
80.639504
80.639504
80.639504
80.639504
80.639504
80.639504
80.639504
80.639504
80.639504
80.639504
98.599144
185.98445
204.3898
41.865478
149.06151
125.40686
0
96.735914
0
0
0
0
0
0
0
591.79462
546.29823
0
0
32.46308
179.63523
160.08001
110.77118
24.921436
138.26123
231.56925
243.58824
247.25594
436.76224
391.18483
174.00676
0
0
124.64605
743.48979
329.19205
15.019913
103.36565
11.417875
4.8561567
49.245459
0
0
54.782165
0
0
6.2481669
0
0
0
0
166.04642
237.72357
371.29904
422.49893
493.84354
329.73334
78.964447
15.980663
28.495829
0
82.128157
52.172033
0
0
0
0
0
0
0
0
0
0
0
0
0
0
0
0
80.993711
49.839221
658.49783
671.70849
698.15459
262.6156
245.05937
216.6592
202.7422
0
20.315265
0
0
0
0
108.37013
146.56607
638.51561
666.79573
732.11352
186.97325
106.55488
0
0
0
0
0
0
464.95122
671.74438
627.35702
439.73778
406.63945
509.42761
88.295814
190.52147
246.9557
324.26389
133.8359
154.90724
174.39829
12.510039
41.598009
14.158614
0
0
0
111.11137
109.80724
164.33487
220.11214
115.77975
116.67822
0
220.42969
34.489126
74.875944
0
0
37.892122
10.160585
107.44353
220.92751
276.73807
241.10726
298.01544
586.04053
504.10548
547.11089
684.88168
710.55619
719.49731
519.62882
350.72896
380.2048
455.38987
427.97666
326.14238
305.6255
388.27238
405.72794
313.43504
306.41992
243.27508
445.64885
400.7205
376.53361
338.46954
417.84136
0
0
0
189.76151
212.34574
0
0
0
0
0
0
0
0
0
0
0
0
0
0
0
0
0
0
0
73.070543
3.4859592
4.4304239
133.6456
94.783851
61.918019
51.224686
608.9482
439.90706
560.52418
751.71029
725.48398
591.34858
506.67954
669.75819
275.68838
314.61198
56.860614
76.331749
267.35266
140.20556
102.7663
117.04321
388.50266
420.35899
217.88107
231.36942
38.279142
87.010941
22.720331
44.361668
119.85298
228.8404
0
306.72066
0
0
0
0
0
0
253.03472
0
0
41.061603
0
499.76237
276.64234
0
268.59335
316.80912
0
0
0
0
0
0
0
0
174.09787
0
0
0
0
20.129615
411.99338
301.73629
394.14557
286.97112
255.62402
148.28111
18.997276
116.08925
7.3198414
214.24942
165.1496
67.382762
30.473678
0
0
0
0
0
0
0
0
0
0
0
0
0
0
113.69629
85.218593
248.12076
0
231.91339
0
105.11863
707.00862
167.80934
0
381.70395
511.93406
310.46375
314.27101
571.51635
367.94601
536.41745
431.37653
500.55714
456.44327
66.93668
181.82872
127.40733
257.99824
319.32311
206.10813
252.3617
378.90954
127.59028
64.197311
264.68579
126.82403
175.89666
116.67678
0
0
10.184522
559.69091
559.78562
491.5988
611.74506
229.47337
512.10473
352.51568
0
0
0
228.97041
0
0
0
0
0
0
0
0
0
0
0
0
0
0
0
0
0
0
0
0
51.972841
92.430495
58.196904
39.573904
25.58752
643.32066
735.36685
665.80381
213.8229
245.50837
117.85287
198.16998
116.87626
191.39429
245.73857
148.52464
442.40981
134.80535
435.22545
127.34488
18.950029
56.04872
71.567271
208.42521
158.00446
265.74575
1.2817417
52.987034
588.49938
532.10021
557.10991
671.12476
480.18231
)


1049
(
585.76158
585.76158
585.76158
585.76158
585.76158
585.76158
585.76158
585.76158
585.76158
585.76158
585.76158
585.76158
585.76158
585.76158
585.76158
585.76158
585.76158
585.76158
585.76158
585.76158
585.76158
585.76158
585.76158
585.76158
585.76158
585.76158
303.27639
101.90348
101.28896
585.76158
585.76158
359.87226
585.76158
585.76158
585.76158
585.76158
526.35684
585.76158
376.99248
585.76158
585.76158
585.76158
585.76158
585.76158
585.76158
101.28896
133.86176
585.76158
585.76158
101.90348
303.27639
585.76158
585.76158
381.3903
585.76158
65.939823
106.20286
101.90348
106.20286
106.20286
65.939823
585.76158
585.76158
585.76158
585.76158
585.76158
585.76158
118.3474
118.3474
101.28896
585.76158
585.76158
585.76158
65.939823
142.51223
585.76158
133.86176
142.51223
65.939823
585.76158
585.76158
585.76158
75.35013
118.3474
55.256001
585.76158
585.76158
585.76158
585.76158
585.76158
585.76158
585.76158
585.76158
101.28896
75.35013
234.17984
585.76158
585.76158
585.76158
585.76158
585.76158
585.76158
234.17984
585.76158
585.76158
585.76158
585.76158
585.76158
142.51223
75.35013
75.35013
220.04565
220.04565
142.51223
215.99722
215.99722
215.99722
585.76158
585.76158
585.76158
585.76158
585.76158
585.76158
108.61619
108.61619
328.46255
585.76158
585.76158
585.76158
585.76158
585.76158
585.76158
585.76158
585.76158
585.76158
585.76158
585.76158
585.76158
108.61619
108.61619
585.76158
585.76158
585.76158
585.76158
585.76158
585.76158
585.76158
585.76158
585.76158
585.76158
585.76158
585.76158
585.76158
585.76158
585.76158
145.93862
145.93862
255.31802
585.76158
585.76158
585.76158
118.3474
585.76158
585.76158
585.76158
585.76158
585.76158
585.76158
585.76158
526.35684
585.76158
585.76158
585.76158
585.76158
585.76158
585.76158
585.76158
585.76158
585.76158
101.90348
585.76158
585.76158
585.76158
585.76158
223.56514
585.76158
585.76158
585.76158
585.76158
585.76158
585.76158
55.256001
55.256001
55.256001
585.76158
585.76158
585.76158
585.76158
585.76158
585.76158
142.51223
133.86176
133.86176
133.86176
133.86176
142.51223
585.76158
585.76158
585.76158
585.76158
585.76158
585.76158
585.76158
585.76158
585.76158
585.76158
585.76158
585.76158
255.31802
145.93862
145.93862
585.76158
585.76158
585.76158
585.76158
585.76158
585.76158
585.76158
585.76158
585.76158
585.76158
585.76158
585.76158
585.76158
585.76158
585.76158
585.76158
585.76158
585.76158
585.76158
585.76158
585.76158
227.80796
227.80796
227.80796
227.80796
227.80796
227.80796
227.80796
227.80796
0
227.80796
227.80796
0
227.80796
227.80796
227.80796
227.80796
227.80796
227.80796
227.80796
227.80796
227.80796
227.80796
227.80796
227.80796
227.80796
227.80796
227.80796
227.80796
227.80796
227.80796
227.80796
227.80796
227.80796
227.80796
227.80796
0
0
0
0
227.80796
227.80796
0
227.80796
227.80796
227.80796
227.80796
227.80796
227.80796
227.80796
227.80796
227.80796
227.80796
227.80796
227.80796
227.80796
227.80796
227.80796
227.80796
0
0
227.80796
227.80796
227.80796
227.80796
227.80796
227.80796
227.80796
227.80796
227.80796
227.80796
227.80796
227.80796
227.80796
227.80796
227.80796
227.80796
227.80796
227.80796
227.80796
0
227.80796
0
0
227.80796
227.80796
0
227.80796
0
0
227.80796
227.80796
0
227.80796
585.76158
227.80796
585.76158
585.76158
227.80796
227.80796
585.76158
585.76158
227.80796
227.80796
0
227.80796
0
227.80796
585.76158
227.80796
585.76158
227.80796
0
585.76158
227.80796
227.80796
227.80796
227.80796
227.80796
227.80796
227.80796
227.80796
227.80796
227.80796
227.80796
227.80796
227.80796
227.80796
227.80796
227.80796
227.80796
227.80796
227.80796
227.80796
227.80796
227.80796
227.80796
227.80796
227.80796
227.80796
227.80796
585.76158
585.76158
227.80796
227.80796
227.80796
585.76158
585.76158
585.76158
227.80796
585.76158
585.76158
227.80796
585.76158
585.76158
227.80796
585.76158
585.76158
227.80796
585.76158
585.76158
585.76158
227.80796
585.76158
585.76158
585.76158
227.80796
585.76158
585.76158
585.76158
227.80796
585.76158
585.76158
585.76158
227.80796
585.76158
585.76158
585.76158
227.80796
585.76158
585.76158
585.76158
0
585.76158
227.80796
0
227.80796
227.80796
227.80796
0
227.80796
227.80796
227.80796
0
227.80796
227.80796
227.80796
0
227.80796
227.80796
227.80796
0
227.80796
227.80796
227.80796
0
227.80796
227.80796
0
227.80796
227.80796
227.80796
0
227.80796
227.80796
227.80796
227.80796
0
227.80796
227.80796
227.80796
0
227.80796
227.80796
227.80796
227.80796
227.80796
227.80796
227.80796
227.80796
227.80796
227.80796
0
0
0
0
0
0
0
0
0
0
0
0
0
227.80796
227.80796
227.80796
227.80796
227.80796
227.80796
227.80796
227.80796
227.80796
227.80796
0
0
0
0
227.80796
227.80796
227.80796
227.80796
0
0
227.80796
227.80796
227.80796
227.80796
227.80796
227.80796
227.80796
227.80796
227.80796
227.80796
227.80796
227.80796
227.80796
227.80796
227.80796
227.80796
227.80796
227.80796
227.80796
227.80796
227.80796
227.80796
227.80796
227.80796
585.76158
585.76158
585.76158
585.76158
585.76158
585.76158
585.76158
585.76158
585.76158
585.76158
585.76158
227.80796
227.80796
227.80796
227.80796
227.80796
227.80796
227.80796
227.80796
227.80796
227.80796
227.80796
227.80796
227.80796
227.80796
227.80796
227.80796
227.80796
227.80796
227.80796
227.80796
227.80796
227.80796
227.80796
227.80796
227.80796
585.76158
227.80796
585.76158
585.76158
227.80796
585.76158
585.76158
227.80796
585.76158
585.76158
227.80796
585.76158
585.76158
227.80796
585.76158
585.76158
227.80796
585.76158
585.76158
227.80796
585.76158
0
585.76158
227.80796
0
585.76158
0
227.80796
227.80796
0
227.80796
227.80796
0
227.80796
227.80796
0
227.80796
227.80796
0
227.80796
227.80796
0
227.80796
227.80796
0
227.80796
227.80796
0
227.80796
227.80796
0
227.80796
227.80796
227.80796
0
0
0
0
0
0
227.80796
227.80796
227.80796
227.80796
227.80796
0
0
227.80796
227.80796
0
227.80796
227.80796
227.80796
227.80796
227.80796
227.80796
227.80796
227.80796
227.80796
227.80796
227.80796
585.76158
585.76158
585.76158
585.76158
585.76158
227.80796
227.80796
227.80796
227.80796
227.80796
227.80796
227.80796
227.80796
227.80796
227.80796
227.80796
227.80796
218.77865
290.84188
181.46266
191.38465
138.12732
260.47823
0
6.2319937
0
0
0
0
0
0
0
393.81669
351.24707
0
0
0
67.734813
193.50282
35.519887
8.8346317
140.23044
154.71861
205.53438
264.04702
385.14015
256.96873
109.28081
93.128842
65.517924
67.568231
648.47113
419.0294
169.00032
32.010846
137.08607
0
0
0
0
57.824125
0
0
34.886081
0
0
0
0
7.6780375
55.180259
172.5906
269.47097
315.95445
142.83734
50.949387
117.00415
95.917824
0
64.237513
144.62295
0
0
0
0
0
0
0
0
0
0
0
0
0
0
0
0
188.83959
180.83352
479.18192
523.45658
544.35257
339.16097
338.68786
189.29473
168.37384
139.38813
176.60157
0
0
0
0
105.76003
124.14281
447.13844
495.47725
577.63674
310.0141
247.87784
0
0
0
0
0
0
507.61377
633.86345
610.12039
497.71848
475.87845
544.01466
54.54046
42.06384
127.43377
195.13924
74.088547
130.85098
148.49019
83.356803
7.8008255
45.219672
99.324401
11.040438
80.14936
186.49166
146.55529
190.99168
214.50066
80.963572
100.42902
0
192.53569
0
25.801747
0
0
30.830003
37.299417
119.8209
143.48705
190.12268
203.81832
247.88814
483.25014
417.95061
482.35167
562.07357
627.88604
591.43263
386.93151
380.72433
368.95325
436.75787
450.46178
388.85423
388.28304
450.05076
442.67784
350.52676
313.04223
280.50026
368.56226
359.32803
316.20064
210.45834
307.69338
0
0
0
131.23089
146.18299
64.684313
0
137.65276
71.397817
0
0
0
0
0
0
0
0
0
0
0
0
0
0
16.658933
76.341075
26.039658
6.0653919
86.885949
46.924281
103.64585
17.683353
444.61502
298.74725
443.23289
622.9189
629.11656
495.43226
477.50597
589.26089
378.6214
409.74955
208.20481
217.69441
372.02175
268.62542
37.402771
85.847289
267.80572
326.14208
167.18346
210.95033
68.913675
8.3214218
104.19979
185.0695
24.752421
104.59292
0
335.30207
0
0
0
0
0
0
288.40048
0
0
0
0
304.43592
290.7316
0
162.60792
285.18018
0
0
0
0
0
0
0
0
215.18949
0
0
0
0
0
208.55936
103.72672
197.04566
91.930685
94.274306
14.754884
97.616894
38.542876
108.36952
23.987264
13.278243
72.801985
132.71416
0
0
0
0
0
0
0
0
0
0
0
0
0
0
33.70422
193.89681
326.36483
0
189.20516
130.80673
91.532203
548.39547
297.0934
0
435.69313
504.40847
346.34767
389.85905
563.53035
445.6067
560.62568
248.28436
319.67981
288.51879
0
2.1904471
0
69.767321
141.40562
33.089905
94.307873
223.32152
200.27731
10.056602
258.15318
132.13491
133.4558
56.724613
0
0
6.1125058
393.5584
427.91288
344.92481
542.40623
300.1742
516.45544
251.64951
0
0
0
163.06426
0
0
0
0
0
0
42.809101
87.822036
0
0
0
4.9222882
0
0
0
0
0
0
0
0
47.782011
54.584469
12.271198
14.92449
48.507568
503.6098
617.6148
561.56176
321.26828
357.71095
257.20283
319.74446
236.13951
109.79701
257.15771
173.94654
418.69199
133.61834
376.28926
217.37196
126.10527
168.8947
138.20129
256.08175
263.75701
334.86573
84.05117
70.942086
555.32984
500.17787
562.55353
624.54055
516.54513
)


1049
(
536.2201
536.2201
536.2201
536.2201
536.2201
536.2201
536.2201
536.2201
536.2201
536.2201
137.88055
536.2201
137.88055
536.2201
536.2201
536.2201
536.2201
536.2201
84.234293
536.2201
536.2201
536.2201
536.2201
536.2201
168.70311
90.043791
168.70311
199.45977
145.7401
536.2201
536.2201
329.14361
536.2201
536.2201
536.2201
90.043791
230.31356
536.2201
536.2201
536.2201
536.2201
536.2201
536.2201
536.2201
536.2201
145.7401
536.2201
536.2201
536.2201
536.2201
168.70311
536.2201
536.2201
403.76024
536.2201
145.21417
88.210007
199.45977
88.210007
88.210007
145.21417
536.2201
536.2201
536.2201
536.2201
536.2201
536.2201
111.04871
111.04871
145.7401
536.2201
536.2201
88.210007
145.21417
536.2201
536.2201
536.2201
536.2201
145.21417
536.2201
536.2201
536.2201
156.72642
111.04871
106.24428
0
536.2201
536.2201
536.2201
536.2201
536.2201
320.21609
536.2201
145.7401
156.72642
294.48463
536.2201
536.2201
536.2201
536.2201
536.2201
536.2201
536.2201
536.2201
536.2201
536.2201
536.2201
536.2201
293.95012
156.72642
156.72642
536.2201
536.2201
536.2201
536.2201
536.2201
536.2201
536.2201
536.2201
536.2201
230.31356
536.2201
536.2201
57.275772
57.275772
90.043791
84.234293
230.31356
84.234293
536.2201
536.2201
536.2201
536.2201
90.043791
536.2201
536.2201
536.2201
90.043791
57.275772
57.275772
466.37371
536.2201
536.2201
536.2201
536.2201
536.2201
536.2201
536.2201
536.2201
536.2201
536.2201
230.31356
230.31356
168.70311
90.043791
70.350488
70.350488
84.234293
536.2201
536.2201
536.2201
111.04871
536.2201
536.2201
536.2201
536.2201
536.2201
536.2201
536.2201
230.31356
536.2201
536.2201
536.2201
536.2201
536.2201
536.2201
536.2201
536.2201
536.2201
199.45977
536.2201
536.2201
536.2201
536.2201
410.04718
536.2201
536.2201
536.2201
412.24356
320.21609
536.2201
106.24428
106.24428
106.24428
536.2201
536.2201
536.2201
536.2201
536.2201
536.2201
536.2201
536.2201
536.2201
295.00095
295.00095
293.95012
536.2201
536.2201
536.2201
536.2201
536.2201
536.2201
536.2201
536.2201
536.2201
536.2201
536.2201
536.2201
84.234293
70.350488
70.350488
536.2201
536.2201
536.2201
536.2201
536.2201
536.2201
536.2201
536.2201
536.2201
536.2201
536.2201
536.2201
536.2201
536.2201
536.2201
536.2201
536.2201
536.2201
536.2201
536.2201
536.2201
381.92334
381.92334
381.92334
381.92334
381.92334
107.45792
381.92334
103.96065
0
157.47499
87.646467
0
98.716234
148.85343
381.92334
381.92334
381.92334
135.27843
381.92334
381.92334
381.92334
381.92334
381.92334
381.92334
381.92334
381.92334
381.92334
119.87437
159.67022
165.86975
381.92334
381.92334
381.92334
381.92334
381.92334
0
0
0
0
130.03708
146.2681
0
108.60577
135.53488
381.92334
381.92334
381.92334
381.92334
381.92334
381.92334
381.92334
381.92334
172.69461
178.61911
381.92334
381.92334
381.92334
381.92334
0
0
381.92334
381.92334
381.92334
381.92334
381.92334
381.92334
381.92334
381.92334
381.92334
381.92334
381.92334
381.92334
381.92334
381.92334
186.6471
381.92334
381.92334
381.92334
381.92334
0
381.92334
0
0
381.92334
381.92334
0
178.29924
0
0
381.92334
381.92334
0
381.92334
536.2201
381.92334
536.2201
536.2201
381.92334
381.92334
536.2201
536.2201
381.92334
381.92334
0
381.92334
0
381.92334
536.2201
381.92334
536.2201
381.92334
0
536.2201
381.92334
381.92334
381.92334
381.92334
381.92334
381.92334
381.92334
381.92334
381.92334
381.92334
381.92334
381.92334
381.92334
381.92334
381.92334
381.92334
381.92334
381.92334
381.92334
381.92334
381.92334
381.92334
381.92334
381.92334
381.92334
381.92334
381.92334
536.2201
536.2201
381.92334
381.92334
381.92334
536.2201
536.2201
536.2201
381.92334
536.2201
536.2201
381.92334
536.2201
536.2201
381.92334
536.2201
536.2201
381.92334
536.2201
536.2201
536.2201
381.92334
536.2201
536.2201
536.2201
381.92334
536.2201
536.2201
536.2201
381.92334
536.2201
536.2201
536.2201
381.92334
536.2201
536.2201
536.2201
381.92334
536.2201
536.2201
536.2201
0
536.2201
381.92334
0
381.92334
381.92334
381.92334
0
381.92334
381.92334
381.92334
0
381.92334
381.92334
381.92334
0
381.92334
381.92334
381.92334
0
381.92334
381.92334
381.92334
0
381.92334
381.92334
0
381.92334
381.92334
381.92334
0
381.92334
381.92334
381.92334
381.92334
0
381.92334
381.92334
162.25672
0
168.58522
381.92334
381.92334
381.92334
381.92334
381.92334
381.92334
381.92334
381.92334
381.92334
0
0
0
0
0
0
0
0
0
0
0
0
0
381.92334
381.92334
381.92334
381.92334
381.92334
381.92334
381.92334
381.92334
381.92334
381.92334
0
0
0
0
381.92334
381.92334
381.92334
381.92334
0
0
381.92334
381.92334
381.92334
381.92334
381.92334
381.92334
381.92334
381.92334
381.92334
381.92334
381.92334
381.92334
381.92334
381.92334
381.92334
381.92334
381.92334
381.92334
381.92334
381.92334
381.92334
381.92334
381.92334
381.92334
536.2201
536.2201
536.2201
536.2201
536.2201
536.2201
536.2201
536.2201
536.2201
536.2201
536.2201
381.92334
381.92334
381.92334
381.92334
381.92334
381.92334
381.92334
381.92334
381.92334
381.92334
381.92334
381.92334
381.92334
381.92334
381.92334
381.92334
381.92334
381.92334
381.92334
381.92334
381.92334
381.92334
381.92334
381.92334
381.92334
536.2201
381.92334
536.2201
536.2201
381.92334
536.2201
536.2201
381.92334
536.2201
536.2201
381.92334
536.2201
536.2201
381.92334
536.2201
536.2201
381.92334
536.2201
536.2201
381.92334
536.2201
0
536.2201
381.92334
0
536.2201
0
381.92334
381.92334
0
381.92334
381.92334
0
381.92334
381.92334
0
381.92334
381.92334
0
381.92334
381.92334
0
381.92334
381.92334
0
381.92334
381.92334
0
381.92334
381.92334
0
381.92334
381.92334
381.92334
0
0
0
0
0
0
381.92334
381.92334
381.92334
381.92334
381.92334
0
0
381.92334
381.92334
0
381.92334
381.92334
381.92334
381.92334
381.92334
381.92334
381.92334
381.92334
381.92334
381.92334
381.92334
536.2201
536.2201
536.2201
536.2201
536.2201
381.92334
381.92334
381.92334
381.92334
381.92334
381.92334
381.92334
381.92334
381.92334
381.92334
381.92334
381.92334
342.4218
409.08683
200.07997
341.43709
156.23739
405.60825
0
0
0
0
0
0
0
0
0
260.80684
219.12564
0
0
0
0
232.80792
0
1.39838
145.10166
91.91494
182.27687
296.57454
370.94221
156.59636
69.128032
255.98394
225.18773
23.343854
634.58259
542.20111
326.79324
48.458861
291.74462
0
0
0
0
136.21651
0
0
73.01559
0
0
0
0
82.502054
63.594606
17.411625
170.89435
198.08544
1.8608129
138.19845
205.28574
198.0222
0
169.32823
229.20909
0
0
0
0
0
0
0
0
0
0
0
0
0
0
0
0
296.69374
310.17203
369.19998
443.61927
463.0483
436.44439
452.5192
205.85821
172.52797
290.79322
332.1601
0
0
0
0
122.96694
127.49707
325.2966
400.43115
504.53048
450.17383
398.29132
0
0
0
42.842065
0
0
603.53497
667.64709
662.56509
601.45813
588.79015
634.36556
157.10734
63.568049
25.251664
92.201213
17.324271
111.55424
129.52534
175.58241
67.539618
100.38214
202.31724
141.67225
210.17133
263.49317
183.44298
232.91339
226.18944
58.289195
97.059902
0
181.45093
0
17.297699
0
0
33.331077
53.228643
131.70363
78.941878
122.80135
181.04048
218.83536
436.45575
377.44596
468.64963
508.65905
619.02895
537.99147
302.82103
439.69055
388.81938
458.4501
511.64017
479.6209
498.43251
548.81817
516.36457
412.20782
342.23616
333.62729
329.99944
351.07178
286.10587
110.13349
233.44714
0
0
0
102.68489
114.62275
217.81585
125.69205
300.33869
235.84483
0
0
0
0
0
0
0
0
0
0
57.183976
0
92.211419
99.646847
162.42683
91.167236
52.506977
7.4553216
57.347855
5.7346629
163.43329
25.149428
352.30404
214.38763
395.08535
576.98199
614.41672
471.47678
511.25213
586.6281
508.66185
537.85756
365.81448
370.00529
506.97446
415.03637
3.4561162
79.605447
199.35177
287.85476
152.02607
227.24867
192.52549
130.83472
242.56167
334.62966
30.407085
15.483018
0
383.07164
0
0
0
0
36.023331
0
341.56704
0
0
0
0
160.77471
323.94079
0
75.675187
276.78573
0
0
0
0
0
0
0
0
271.56858
0
0
0
0
0
50.56295
39.988182
40.576852
45.630862
20.663643
61.452198
193.12512
138.10548
208.42391
94.008842
120.72068
176.18436
224.65498
0
0
0
0
0
0
0
0
0
0
0
0
31.180648
0
133.59015
303.18088
423.57094
0
191.22767
288.48122
94.406867
469.81644
442.47541
11.854025
536.29598
559.00335
424.54094
504.45782
621.83303
564.63331
641.20527
107.33905
188.44041
163.96056
0
105.74727
0
61.208675
4.6771606
80.440822
29.496662
101.53448
276.43173
108.08836
270.46518
151.21782
105.43398
7.5210545
0
0
10.367643
282.66431
349.44013
244.18944
532.57359
386.82292
569.92044
178.96127
0
0
0
136.31004
2.7369173
0
0
0
24.618484
120.10414
201.92368
252.71921
122.01159
146.16623
94.31952
170.92318
0
0
0
0
0
74.564305
0
0
47.774104
24.720764
112.17347
18.412622
86.20189
439.97885
582.585
535.48514
455.74663
494.93418
409.77734
463.7681
373.35189
60.62225
305.9568
226.69911
452.04917
158.9957
374.63448
329.30362
243.67509
295.13914
222.87003
335.98021
392.56501
439.89239
177.04892
212.64155
579.75973
518.12509
624.20058
647.69577
600.80729
)


1049
(
411.8157
411.8157
411.8157
411.8157
67.620976
411.8157
411.8157
411.8157
411.8157
411.8157
67.620976
0
67.620976
411.8157
67.620976
0
411.8157
411.8157
86.63405
411.8157
411.8157
0
0
411.8157
246.09034
62.633528
246.09034
411.8157
176.79692
411.8157
411.8157
411.8157
411.8157
411.8157
411.8157
62.633528
186.77359
0
0
411.8157
411.8157
411.8157
411.8157
411.8157
411.8157
411.8157
0
0
411.8157
411.8157
411.8157
411.8157
411.8157
411.8157
0
167.30811
107.67453
411.8157
107.67453
107.67453
167.30811
411.8157
411.8157
0
0
0
411.8157
148.96121
148.96121
176.79692
411.8157
411.8157
107.67453
167.30811
0
0
0
0
411.8157
0
0
411.8157
141.67748
148.96121
147.76759
411.8157
0
0
0
0
0
0
0
176.79692
141.67748
0
0
0
0
341.95745
0
411.8157
0
0
411.8157
0
0
0
0
141.67748
141.67748
0
0
0
0
0
0
0
0
0
186.77359
411.8157
411.8157
73.735114
73.735114
62.633528
86.63405
186.77359
86.63405
306.91361
411.8157
411.8157
411.8157
62.633528
0
0
0
62.633528
73.735114
73.735114
299.02041
411.8157
411.8157
411.8157
411.8157
411.8157
411.8157
0
0
0
411.8157
186.77359
411.8157
411.8157
62.633528
93.09642
93.09642
86.63405
411.8157
411.8157
411.8157
148.96121
411.8157
411.8157
411.8157
411.8157
411.8157
411.8157
411.8157
186.77359
0
0
0
0
0
0
411.8157
411.8157
411.8157
411.8157
411.8157
411.8157
411.8157
411.8157
411.8157
411.8157
0
0
0
0
0
147.76759
147.76759
411.8157
0
0
0
0
0
0
0
0
0
411.8157
0
0
0
0
0
411.8157
0
0
0
0
0
0
0
0
86.63405
93.09642
93.09642
411.8157
411.8157
411.8157
411.8157
411.8157
411.8157
411.8157
411.8157
411.8157
411.8157
411.8157
411.8157
411.8157
411.8157
411.8157
411.8157
411.8157
411.8157
411.81514
0
411.81514
87.913681
82.374468
471.50949
471.50949
471.50949
75.236549
471.50949
79.918817
0
84.635596
93.166269
0
84.74305
84.536545
107.12107
129.56646
96.250785
77.358281
471.50949
471.50949
471.50949
471.50949
109.26166
471.50949
471.50949
471.50949
97.71524
72.807599
80.589699
81.582423
471.50949
471.50949
471.50949
471.50949
471.50949
0
0
0
0
106.79826
87.83823
0
105.06303
87.766908
143.92583
86.722202
471.50949
471.50949
145.68599
471.50949
471.50949
87.573394
78.448749
78.689728
471.50949
471.50949
471.50949
471.50949
0
0
471.50949
471.50949
471.50949
471.50949
471.50949
471.50949
471.50949
471.50949
210.86139
471.50949
471.50949
121.41664
471.50949
107.67849
87.008771
471.50949
471.50949
471.50949
471.50949
0
471.50949
0
0
471.50949
471.50949
0
88.078947
0
0
209.50769
105.9174
0
471.50949
411.8157
471.50949
411.8157
411.8157
471.50949
471.50949
411.8157
411.8157
471.50949
471.50949
0
471.50949
0
471.50949
411.8157
471.50949
411.8157
471.50949
0
411.8157
471.50949
471.50949
471.50949
471.50949
471.50949
471.50949
471.50949
471.50949
471.50949
471.50949
471.50949
471.50949
471.50949
471.50949
471.50949
142.44406
471.50949
471.50949
471.50949
471.50949
471.50949
471.50949
471.50949