/*--------------------------------*- C++ -*----------------------------------*\
  =========                 |
  \\      /  F ield         | OpenFOAM: The Open Source CFD Toolbox
   \\    /   O peration     | Website:  https://openfoam.org
    \\  /    A nd           | Version:  8
     \\/     M anipulation  |
\*---------------------------------------------------------------------------*/
/*   Windows 32 and 64 bit porting by blueCAPE: http://www.bluecape.com.pt   *\
|  Based on Windows porting (2.0.x v4) by Symscape: http://www.symscape.com   |
\*---------------------------------------------------------------------------*/
FoamFile
{
    version     2.0;
    format      ascii;
    class       scalarListList;
    location    "constant/vegetation";
    object      sunViewCoeff;
}
// * * * * * * * * * * * * * * * * * * * * * * * * * * * * * * * * * * * * * //


5
(

485
(
0
717.08284
717.08284
717.08284
717.08284
717.08284
717.08284
717.08284
717.08284
717.08284
717.08284
717.08284
717.08284
717.08284
139.59973
113.83785
717.08284
698.48211
158.52168
717.08284
416.69671
717.08284
717.08284
717.08284
78.111061
717.08284
690.76119
70.699823
466.80834
717.08284
714.17615
152.62267
681.95932
310.14065
717.08284
72.354285
124.1614
695.4054
73.717519
79.589038
717.08284
515.31265
408.49535
92.525406
621.32461
717.08284
534.6474
717.08284
717.08284
717.08284
717.08284
0
0
0
0
80.639504
80.639504
80.639504
80.639504
80.639504
80.639504
80.639504
80.639504
0
80.639504
80.639504
0
80.639504
80.639504
80.639504
80.639504
80.639504
80.639504
80.639504
80.639504
80.639504
80.639504
80.639504
80.639504
80.639504
80.639504
80.639504
80.639504
80.639504
80.639504
80.639504
80.639504
80.639504
80.639504
80.639504
0
0
0
0
80.639504
80.639504
0
80.639504
80.639504
80.639504
80.639504
80.639504
80.639504
80.639504
80.639504
80.639504
80.639504
80.639504
80.639504
80.639504
80.639504
80.639504
80.639504
0
0
80.639504
80.639504
80.639504
80.639504
80.639504
80.639504
80.639504
80.639504
80.639504
80.639504
80.639504
80.639504
80.639504
80.639504
80.639504
80.639504
80.639504
80.639504
80.639504
0
80.639504
0
0
80.639504
80.639504
0
80.639504
0
0
80.639504
80.639504
0
80.639504
717.08284
80.639504
717.08284
717.08284
80.639504
80.639504
717.08284
717.08284
80.639504
80.639504
0
80.639504
0
80.639504
717.08284
80.639504
717.08284
80.639504
0
717.08284
80.639504
80.639504
80.639504
80.639504
80.639504
80.639504
80.639504
80.639504
80.639504
80.639504
80.639504
80.639504
80.639504
80.639504
80.639504
80.639504
80.639504
80.639504
80.639504
80.639504
80.639504
80.639504
80.639504
80.639504
80.639504
80.639504
80.639504
717.08284
717.08284
80.639504
80.639504
80.639504
717.08284
717.08284
717.08284
80.639504
717.08284
717.08284
80.639504
717.08284
717.08284
80.639504
717.08284
717.08284
80.639504
717.08284
717.08284
717.08284
80.639504
717.08284
717.08284
717.08284
80.639504
717.08284
717.08284
717.08284
80.639504
717.08284
717.08284
717.08284
80.639504
717.08284
717.08284
717.08284
80.639504
717.08284
717.08284
717.08284
0
717.08284
80.639504
0
80.639504
80.639504
80.639504
0
80.639504
80.639504
80.639504
0
80.639504
80.639504
80.639504
0
80.639504
80.639504
80.639504
0
80.639504
80.639504
80.639504
0
80.639504
80.639504
0
80.639504
80.639504
80.639504
0
80.639504
80.639504
80.639504
80.639504
0
80.639504
80.639504
80.639504
0
80.639504
80.639504
80.639504
80.639504
80.639504
80.639504
80.639504
80.639504
80.639504
80.639504
0
0
0
0
0
0
0
0
0
0
0
0
0
80.639504
80.639504
80.639504
80.639504
80.639504
80.639504
80.639504
80.639504
80.639504
80.639504
0
0
0
0
80.639504
80.639504
80.639504
80.639504
0
0
80.639504
80.639504
80.639504
80.639504
80.639504
80.639504
80.639504
80.639504
80.639504
80.639504
80.639504
80.639504
80.639504
80.639504
80.639504
80.639504
80.639504
80.639504
80.639504
80.639504
80.639504
80.639504
80.639504
80.639504
717.08284
717.08284
717.08284
717.08284
717.08284
717.08284
717.08284
717.08284
717.08284
717.08284
717.08284
80.639504
80.639504
80.639504
80.639504
80.639504
80.639504
80.639504
80.639504
80.639504
80.639504
80.639504
80.639504
80.639504
80.639504
80.639504
80.639504
80.639504
80.639504
80.639504
80.639504
80.639504
80.639504
80.639504
80.639504
80.639504
717.08284
80.639504
717.08284
717.08284
80.639504
717.08284
717.08284
80.639504
717.08284
717.08284
80.639504
717.08284
717.08284
80.639504
717.08284
717.08284
80.639504
717.08284
717.08284
80.639504
717.08284
0
717.08284
80.639504
0
717.08284
0
80.639504
80.639504
0
80.639504
80.639504
0
80.639504
80.639504
0
80.639504
80.639504
0
80.639504
80.639504
0
80.639504
80.639504
0
80.639504
80.639504
0
80.639504
80.639504
0
80.639504
80.639504
80.639504
0
0
0
0
0
0
80.639504
80.639504
80.639504
80.639504
80.639504
0
0
80.639504
80.639504
0
80.639504
80.639504
80.639504
80.639504
80.639504
80.639504
80.639504
80.639504
80.639504
80.639504
80.639504
717.08284
717.08284
717.08284
717.08284
717.08284
80.639504
80.639504
80.639504
80.639504
80.639504
80.639504
80.639504
80.639504
80.639504
80.639504
80.639504
80.639504
40.186754
163.43949
23.332202
213.6049
29.985072
11.34562
443.27883
450.62202
)


485
(
0
585.76158
585.76158
585.76158
585.76158
585.76158
585.76158
585.76158
585.76158
456.29235
585.76158
585.76158
384.02238
555.541
101.90348
101.28896
585.76158
565.80779
573.57752
585.76158
544.05492
585.76158
585.76158
585.76158
133.86176
585.76158
561.14368
65.939823
227.08075
585.76158
585.76158
585.76158
585.76158
118.3474
585.76158
142.51223
362.46837
585.76158
75.35013
55.256001
585.76158
411.73869
585.76158
402.45413
585.76158
585.76158
585.76158
108.61619
145.93862
585.76158
495.59815
0
0
0
0
227.80796
227.80796
227.80796
227.80796
227.80796
227.80796
227.80796
227.80796
0
227.80796
227.80796
0
227.80796
227.80796
227.80796
227.80796
227.80796
227.80796
227.80796
227.80796
227.80796
227.80796
227.80796
227.80796
227.80796
227.80796
227.80796
227.80796
227.80796
227.80796
227.80796
227.80796
227.80796
227.80796
227.80796
0
0
0
0
227.80796
227.80796
0
227.80796
227.80796
227.80796
227.80796
227.80796
227.80796
227.80796
227.80796
227.80796
227.80796
227.80796
227.80796
227.80796
227.80796
227.80796
227.80796
0
0
227.80796
227.80796
227.80796
227.80796
227.80796
227.80796
227.80796
227.80796
227.80796
227.80796
227.80796
227.80796
227.80796
227.80796
227.80796
227.80796
227.80796
227.80796
227.80796
0
227.80796
0
0
227.80796
227.80796
0
227.80796
0
0
227.80796
227.80796
0
227.80796
585.76158
227.80796
585.76158
585.76158
227.80796
227.80796
585.76158
585.76158
227.80796
227.80796
0
227.80796
0
227.80796
585.76158
227.80796
585.76158
227.80796
0
585.76158
227.80796
227.80796
227.80796
227.80796
227.80796
227.80796
227.80796
227.80796
227.80796
227.80796
227.80796
227.80796
227.80796
227.80796
227.80796
227.80796
227.80796
227.80796
227.80796
227.80796
227.80796
227.80796
227.80796
227.80796
227.80796
227.80796
227.80796
585.76158
585.76158
227.80796
227.80796
227.80796
585.76158
585.76158
585.76158
227.80796
585.76158
585.76158
227.80796
585.76158
585.76158
227.80796
585.76158
585.76158
227.80796
585.76158
585.76158
585.76158
227.80796
585.76158
585.76158
585.76158
227.80796
585.76158
585.76158
585.76158
227.80796
585.76158
585.76158
585.76158
227.80796
585.76158
585.76158
585.76158
227.80796
585.76158
585.76158
585.76158
0
585.76158
227.80796
0
227.80796
227.80796
227.80796
0
227.80796
227.80796
227.80796
0
227.80796
227.80796
227.80796
0
227.80796
227.80796
227.80796
0
227.80796
227.80796
227.80796
0
227.80796
227.80796
0
227.80796
227.80796
227.80796
0
227.80796
227.80796
227.80796
227.80796
0
227.80796
227.80796
227.80796
0
227.80796
227.80796
227.80796
227.80796
227.80796
227.80796
227.80796
227.80796
227.80796
227.80796
0
0
0
0
0
0
0
0
0
0
0
0
0
227.80796
227.80796
227.80796
227.80796
227.80796
227.80796
227.80796
227.80796
227.80796
227.80796
0
0
0
0
227.80796
227.80796
227.80796
227.80796
0
0
227.80796
227.80796
227.80796
227.80796
227.80796
227.80796
227.80796
227.80796
227.80796
227.80796
227.80796
227.80796
227.80796
227.80796
227.80796
227.80796
227.80796
227.80796
227.80796
227.80796
227.80796
227.80796
227.80796
227.80796
585.76158
585.76158
585.76158
585.76158
585.76158
585.76158
585.76158
585.76158
585.76158
585.76158
585.76158
227.80796
227.80796
227.80796
227.80796
227.80796
227.80796
227.80796
227.80796
227.80796
227.80796
227.80796
227.80796
227.80796
227.80796
227.80796
227.80796
227.80796
227.80796
227.80796
227.80796
227.80796
227.80796
227.80796
227.80796
227.80796
585.76158
227.80796
585.76158
585.76158
227.80796
585.76158
585.76158
227.80796
585.76158
585.76158
227.80796
585.76158
585.76158
227.80796
585.76158
585.76158
227.80796
585.76158
585.76158
227.80796
585.76158
0
585.76158
227.80796
0
585.76158
0
227.80796
227.80796
0
227.80796
227.80796
0
227.80796
227.80796
0
227.80796
227.80796
0
227.80796
227.80796
0
227.80796
227.80796
0
227.80796
227.80796
0
227.80796
227.80796
0
227.80796
227.80796
227.80796
0
0
0
0
0
0
227.80796
227.80796
227.80796
227.80796
227.80796
0
0
227.80796
227.80796
0
227.80796
227.80796
227.80796
227.80796
227.80796
227.80796
227.80796
227.80796
227.80796
227.80796
227.80796
585.76158
585.76158
585.76158
585.76158
585.76158
227.80796
227.80796
227.80796
227.80796
227.80796
227.80796
227.80796
227.80796
227.80796
227.80796
227.80796
227.80796
84.219356
174.36975
75.858365
341.81857
19.923909
0
216.14501
329.69424
)


485
(
0
536.2201
536.2201
336.77928
536.2201
536.2201
536.2201
536.2201
536.2201
84.234293
536.2201
536.2201
168.70311
90.043791
283.22459
145.7401
536.2201
517.92813
230.31356
518.45973
536.2201
536.2201
536.2201
494.90177
495.93355
536.2201
520.26441
145.21417
88.210007
536.2201
536.2201
536.2201
536.2201
111.04871
522.19328
455.62525
536.2201
536.2201
156.72642
106.24428
474.65773
476.13586
536.2201
536.2201
536.2201
536.2201
536.2201
57.275772
70.350488
536.2201
504.81123
0
0
0
0
381.92334
381.92334
381.92334
381.92334
381.92334
107.45792
381.92334
103.96065
0
157.47499
87.646467
0
98.716234
148.85343
381.92334
381.92334
381.92334
135.27843
381.92334
381.92334
381.92334
381.92334
381.92334
381.92334
381.92334
381.92334
381.92334
119.87437
159.67022
165.86975
381.92334
381.92334
381.92334
381.92334
381.92334
0
0
0
0
130.03708
146.2681
0
108.60577
135.53488
381.92334
381.92334
381.92334
381.92334
381.92334
381.92334
381.92334
381.92334
172.69461
178.61911
381.92334
381.92334
381.92334
381.92334
0
0
381.92334
381.92334
381.92334
381.92334
381.92334
381.92334
381.92334
381.92334
381.92334
381.92334
381.92334
381.92334
381.92334
381.92334
186.6471
381.92334
381.92334
381.92334
381.92334
0
381.92334
0
0
381.92334
381.92334
0
178.29924
0
0
381.92334
381.92334
0
381.92334
536.2201
381.92334
536.2201
536.2201
381.92334
381.92334
536.2201
536.2201
381.92334
381.92334
0
381.92334
0
381.92334
536.2201
381.92334
536.2201
381.92334
0
536.2201
381.92334
381.92334
381.92334
381.92334
381.92334
381.92334
381.92334
381.92334
381.92334
381.92334
381.92334
381.92334
381.92334
381.92334
381.92334
381.92334
381.92334
381.92334
381.92334
381.92334
381.92334
381.92334
381.92334
381.92334
381.92334
381.92334
381.92334
536.2201
536.2201
381.92334
381.92334
381.92334
536.2201
536.2201
536.2201
381.92334
536.2201
536.2201
381.92334
536.2201
536.2201
381.92334
536.2201
536.2201
381.92334
536.2201
536.2201
536.2201
381.92334
536.2201
536.2201
536.2201
381.92334
536.2201
536.2201
536.2201
381.92334
536.2201
536.2201
536.2201
381.92334
536.2201
536.2201
536.2201
381.92334
536.2201
536.2201
536.2201
0
536.2201
381.92334
0
381.92334
381.92334
381.92334
0
381.92334
381.92334
381.92334
0
381.92334
381.92334
381.92334
0
381.92334
381.92334
381.92334
0
381.92334
381.92334
381.92334
0
381.92334
381.92334
0
381.92334
381.92334
381.92334
0
381.92334
381.92334
381.92334
381.92334
0
381.92334
381.92334
162.25672
0
168.58522
381.92334
381.92334
381.92334
381.92334
381.92334
381.92334
381.92334
381.92334
381.92334
0
0
0
0
0
0
0
0
0
0
0
0
0
381.92334
381.92334
381.92334
381.92334
381.92334
381.92334
381.92334
381.92334
381.92334
381.92334
0
0
0
0
381.92334
381.92334
381.92334
381.92334
0
0
381.92334
381.92334
381.92334
381.92334
381.92334
381.92334
381.92334
381.92334
381.92334
381.92334
381.92334
381.92334
381.92334
381.92334
381.92334
381.92334
381.92334
381.92334
381.92334
381.92334
381.92334
381.92334
381.92334
381.92334
536.2201
536.2201
536.2201
536.2201
536.2201
536.2201
536.2201
536.2201
536.2201
536.2201
536.2201
381.92334
381.92334
381.92334
381.92334
381.92334
381.92334
381.92334
381.92334
381.92334
381.92334
381.92334
381.92334
381.92334
381.92334
381.92334
381.92334
381.92334
381.92334
381.92334
381.92334
381.92334
381.92334
381.92334
381.92334
381.92334
536.2201
381.92334
536.2201
536.2201
381.92334
536.2201
536.2201
381.92334
536.2201
536.2201
381.92334
536.2201
536.2201
381.92334
536.2201
536.2201
381.92334
536.2201
536.2201
381.92334
536.2201
0
536.2201
381.92334
0
536.2201
0
381.92334
381.92334
0
381.92334
381.92334
0
381.92334
381.92334
0
381.92334
381.92334
0
381.92334
381.92334
0
381.92334
381.92334
0
381.92334
381.92334
0
381.92334
381.92334
0
381.92334
381.92334
381.92334
0
0
0
0
0
0
381.92334
381.92334
381.92334
381.92334
381.92334
0
0
381.92334
381.92334
0
381.92334
381.92334
381.92334
381.92334
381.92334
381.92334
381.92334
381.92334
381.92334
381.92334
381.92334
536.2201
536.2201
536.2201
536.2201
536.2201
381.92334
381.92334
381.92334
381.92334
381.92334
381.92334
381.92334
381.92334
381.92334
381.92334
381.92334
381.92334
118.15898
220.31006
64.081508
483.00947
0
0
58.856485
238.80099
)


485
(
0
411.8157
411.8157
67.620976
411.8157
411.8157
0
411.8157
411.8157
86.63405
411.8157
403.76458
365.57811
62.633528
411.8157
234.79482
411.8157
411.8157
211.1339
0
0
411.8157
411.8157
411.8157
34.469245
0
376.26161
228.61274
107.67453
411.81554
0
0
0
148.96121
389.16372
0
0
0
141.67748
213.40901
0
0
0
0
0
0
411.8157
73.735114
93.09642
411.8157
411.8157
0
0
0
0
87.913681
82.374468
471.50949
471.50949
471.50949
75.236549
471.50949
79.918817
0
84.635596
93.166269
0
84.74305
84.536545
107.12107
129.56646
96.250785
77.358281
471.50949
471.50949
471.50949
471.50949
109.26166
471.50949
471.50949
471.50949
97.71524
72.807599
80.589699
81.582423
471.50949
471.50949
471.50949
471.50949
471.50949
0
0
0
0
106.79826
87.83823
0
105.06303
87.766908
143.92583
86.722202
471.50949
471.50949
145.68599
471.50949
471.50949
87.573394
78.448749
78.689728
471.50949
471.50949
471.50949
471.50949
0
0
471.50949
471.50949
471.50949
471.50949
471.50949
471.50949
471.50949
471.50949
210.86139
471.50949
471.50949
121.41664
471.50949
107.67849
87.008771
471.50949
471.50949
471.50949
471.50949
0
471.50949
0
0
471.50949
471.50949
0
88.078947
0
0
209.50769
105.9174
0
471.50949
411.8157
471.50949
411.8157
411.8157
471.50949
471.50949
411.8157
411.8157
471.50949
471.50949
0
471.50949
0
471.50949
411.8157
471.50949
411.8157
471.50949
0
411.8157
471.50949
471.50949
471.50949
471.50949
471.50949
471.50949
471.50949
471.50949
471.50949
471.50949
471.50949
471.50949
471.50949
471.50949
471.50949
142.44406
471.50949
471.50949
471.50949
471.50949
471.50949
471.50949
471.50949
471.50949
126.5493
208.21056
104.41871
411.8157
411.8157
471.50949
471.50949
471.50949
411.8157
411.8157
411.8157
471.50949
411.8157
411.8157
471.50949
411.8157
411.8157
471.50949
411.8157
411.8157
471.50949
411.8157
411.8157
411.8157
471.50949
411.8157
411.8157
411.8157
471.50949
411.8157
411.8157
411.8157
471.50949
411.8157
411.8157
411.8157
471.50949
411.8157
411.8157
411.8157
471.50949
411.8157
411.8157
411.8157
0
411.8157
471.50949
0
471.50949
471.50949
471.50949
0
471.50949
471.50949
471.50949
0
471.50949
471.50949
471.50949
0
471.50949
471.50949
471.50949
0
471.50949
471.50949
471.50949
0
471.50949
471.50949
0
471.50949
471.50949
471.50949
0
471.50949
471.50949
165.67516
133.37563
0
131.46682
106.90589
111.17499
0
88.647615
471.50949
471.50949
157.46077
471.50949
95.485044
85.364748
471.50949
471.50949
471.50949
0
0
0
0
0
0
0
0
0
0
0
0
0
471.50949
471.50949
471.50949
471.50949
471.50949
471.50949
471.50949
471.50949
471.50949
471.50949
0
0
0
0
471.50949
471.50949
471.50949
471.50949
0
0
471.50949
471.50949
471.50949
471.50949
471.50949
471.50949
471.50949
471.50949
471.50949
471.50949
471.50949
471.50949
471.50949
471.50949
471.50949
471.50949
471.50949
471.50949
471.50949
471.50949
164.0071
209.73624
102.52347
129.78849
411.8157
411.8157
411.8157
411.8157
411.8157
411.8157
411.8157
411.8157
411.8157
411.8157
411.8157
471.50949
471.50949
471.50949
471.50949
471.50949
471.50949
471.50949
471.50949
471.50949
169.60014
471.50949
471.50949
471.50949
471.50949
471.50949
471.50949
112.75659
152.14952
471.50949
471.50949
471.50949
471.50949
471.50949
471.50949
471.50949
411.8157
471.50949
411.8157
411.8157
471.50949
411.8157
411.8157
471.50949
411.8157
411.8157
471.50949
411.8157
411.8157
471.50949
411.8157
411.8157
471.50949
411.8157
411.8157
471.50949
411.8157
0
411.8157
471.50949
0
411.8157
0
471.50949
471.50949
0
471.50949
471.50949
0
471.50949
471.50949
0
471.50949
471.50949
0
471.50949
471.50949
0
471.50949
471.50949
0
471.50949
471.50949
0
471.50949
167.94606
0
169.43596
133.05805
471.50949
0
0
0
0
0
0
471.50949
471.50949
471.50949
471.50949
471.50949
0
0
471.50949
471.50949
0
471.50949
471.50949
471.50949
471.50949
471.50949
471.50949
471.50949
471.50949
471.50949
163.69921
129.67714
411.8157
411.8157
411.8157
411.8157
411.8157
471.50949
471.50949
471.50949
471.50949
471.50949
471.50949
471.50949
471.50949
138.37148
471.50949
471.50949
471.50949
125.67262
243.64788
52.618877
547.71692
0
0
34.56314
112.4954
)


485
(
0
284.42858
284.42858
0
284.42858
284.42858
0
284.42858
0
219.90392
284.42858
0
284.42858
0
284.42858
0
0
0
284.42858
284.42858
284.42858
284.42858
0
284.42858
189.53582
142.33006
0
0
0
0
0
0
0
0
0
0
0
0
0
0
0
0
259.97752
0
0
0
284.42858
69.246123
139.08331
0
284.42858
0
0
0
0
0
0
0
0
0
0
0
0
13.053587
0
243.28297
13.053587
0
0
0
0
0
0
0
0
0
0
0
0
0
0
0
0
0
0
0
0
0
0
0
13.053587
13.053587
13.053587
6.5391916
233.93819
0
13.053587
249.28716
0
0
0
0
0
0
0
0
0
0
0
0
0
0
0
6.4590631
13.053587
524.72754
524.72754
524.72754
524.72754
524.72754
140.21517
524.72754
183.50644
121.14394
524.72754
524.72754
0
0
0
0
0
0
0
524.72754
13.053587
524.72754
13.053587
13.053587
209.30879
524.72754
13.053587
0
13.053587
13.053587
173.21908
135.72896
13.053587
524.72754
284.42858
524.72754
284.42858
284.42858
524.72754
524.72754
284.42858
284.42858
524.72754
524.72754
13.053587
524.72754
13.053587
524.72754
284.42858
524.72754
284.42858
524.72754
13.053587
284.42858
524.72754
232.96426
524.72754
524.72754
524.72754
524.72754
524.72754
524.72754
524.72754
524.72754
524.72754
524.72754
524.72754
524.72754
524.72754
106.6357
208.70243
195.04002
524.72754
524.72754
524.72754
524.72754
189.40943
524.72754
102.89397
156.17996
122.20596
284.42858
284.42858
524.72754
524.72754
524.72754
284.42858
284.42858
284.42858
524.72754
284.42858
284.42858
524.72754
284.42858
284.42858
524.72754
284.42858
284.42858
524.72754
284.42858
284.42858
284.42858
524.72754
284.42858
284.42858
284.42858
524.72754
284.42858
284.42858
284.42858
524.72754
284.42858
284.42858
284.42858
524.72754
284.42858
284.42858
284.42858
524.72754
284.42858
284.42858
284.42858
13.053587
284.42858
524.72754
13.053587
524.72754
524.72754
524.72754
13.053587
524.72754
524.72754
524.72754
13.053587
524.72754
524.72754
524.72754
13.053587
524.72754
524.72754
524.72754
13.053587
524.72754
524.72754
524.72754
13.053587
524.72754
524.72754
13.053587
524.72754
524.72754
524.72754
13.053587
524.72754
210.499
143.62181
222.70735
13.053587
134.51187
170.46697
226.52771
6.3775887
0
524.72754
524.72754
0
0
0
0
0
0
0
13.053587
13.053587
13.053587
13.053587
13.053587
13.053587
13.053587
13.053587
13.053587
13.053587
13.053587
13.053587
13.053587
524.72754
524.72754
524.72754
524.72754
524.72754
524.72754
524.72754
524.72754
524.72754
524.72754
13.053587
13.053587
13.053587
13.053587
524.72754
524.72754
524.72754
524.72754
13.053587
13.053587
524.72754
524.72754
524.72754
524.72754
524.72754
524.72754
524.72754
524.72754
524.72754
524.72754
524.72754
524.72754
524.72754
524.72754
524.72754
524.72754
236.66734
172.99629
524.72754
524.72754
128.87928
143.56254
110.0935
120.7769
284.42858
284.42858
284.42858
284.42858
284.42858
284.42858
284.42858
284.42858
284.42858
284.42858
284.42858
524.72754
524.72754
524.72754
524.72754
524.72754
524.72754
524.72754
524.72754
110.44107
109.37433
139.38877
204.24854
524.72754
524.72754
524.72754
524.72754
99.31408
103.8962
524.72754
524.72754
524.72754
524.72754
524.72754
524.72754
524.72754
284.42858
524.72754
284.42858
284.42858
524.72754
284.42858
284.42858
524.72754
284.42858
284.42858
524.72754
284.42858
284.42858
524.72754
284.42858
284.42858
524.72754
284.42858
284.42858
524.72754
284.42858
13.053587
284.42858
524.72754
13.053587
284.42858
13.053587
524.72754
524.72754
13.053587
524.72754
524.72754
13.053587
524.72754
524.72754
13.053587
524.72754
524.72754
13.053587
524.72754
524.72754
13.053587
524.72754
524.72754
13.053587
524.72754
524.72754
13.053587
524.72754
177.74097
13.053587
219.16628
168.03195
524.72754
13.053587
13.053587
13.053587
13.053587
13.053587
13.053587
524.72754
524.72754
524.72754
524.72754
524.72754
13.053587
13.053587
524.72754
524.72754
13.053587
524.72754
524.72754
524.72754
524.72754
524.72754
524.72754
524.72754
219.9418
524.72754
116.40718
107.61045
284.42858
284.42858
284.42858
284.42858
284.42858
524.72754
524.72754
524.72754
524.72754
115.54842
145.72447
524.72754
524.72754
97.949099
524.72754
524.72754
524.72754
10.605515
260.57364
16.605056
298.20706
0
0
55.410177
3.0301658
)

)


// ************************************************************************* //
