/*--------------------------------*- C++ -*----------------------------------*\
  =========                 |
  \\      /  F ield         | OpenFOAM: The Open Source CFD Toolbox
   \\    /   O peration     | Website:  https://openfoam.org
    \\  /    A nd           | Version:  8
     \\/     M anipulation  |
\*---------------------------------------------------------------------------*/
/*   Windows 32 and 64 bit porting by blueCAPE: http://www.bluecape.com.pt   *\
|  Based on Windows porting (2.0.x v4) by Symscape: http://www.symscape.com   |
\*---------------------------------------------------------------------------*/
FoamFile
{
    version     2.0;
    format      ascii;
    class       scalarListList;
    location    "constant/vegetation";
    object      F;
}
// * * * * * * * * * * * * * * * * * * * * * * * * * * * * * * * * * * * * * //


369
(

1047
(
0.0044853991
0.0093450873
6.9245205e-06
7.4639042e-06
7.3291153e-06
3.7301505e-06
6.3385687e-06
3.1693676e-06
7.1744587e-05
2.1835628e-05
6.065486e-05
3.284903e-05
3.7985918e-05
1.2783419e-05
1.9206585e-05
1.05103e-05
7.1888099e-06
6.8903916e-08
4.0657196e-07
2.885619e-06
2.8853981e-06
8.8284115e-08
1.6929285e-05
5.2287125e-08
3.9867138e-07
8.5436477e-05
4.7094339e-07
1.178513e-07
2.4914214e-05
1.4013779e-07
3.3757327e-07
5.1598567e-05
2.8911484e-07
1.480971e-05
3.4746675e-08
4.1931194e-08
2.8542685e-05
1.8520017e-07
1.6144113e-07
4.4149797e-05
2.1420326e-07
2.4757176e-07
2.5025006e-06
1.9266206e-06
3.3834055e-06
4.5452919e-06
3.9002907e-06
3.0574286e-06
3.4061559e-06
5.3119347e-06
6.094455e-06
7.9994022e-06
6.9724782e-06
9.223834e-06
1.0677854e-05
9.2572584e-05
8.4765223e-05
1.2289508e-05
1.8661864e-05
2.1350501e-05
1.5123706e-05
1.7786911e-05
1.8624086e-05
1.3833885e-05
7.9784226e-06
1.0675982e-05
5.9808235e-06
0.00011075357
0.0001557165
0.00011094833
0.0001197659
6.4151176e-05
8.420196e-05
2.1094581e-05
1.752086e-05
9.3370264e-05
2.0450378e-05
1.6048286e-05
4.8066984e-05
8.9617579e-06
0.00014182922
0.00012082978
0.00015196198
7.0465344e-05
5.4002737e-06
4.9731922e-06
1.1760452e-05
1.2257076e-05
1.044782e-05
1.0316468e-05
7.0274682e-06
8.8795885e-06
1.2866345e-05
1.6192388e-05
1.3799148e-05
1.7065728e-05
1.522378e-05
1.4574328e-05
1.5906791e-05
1.0403928e-05
9.2824531e-06
1.138186e-05
1.2224303e-05
5.003544e-06
6.5679963e-06
8.0052419e-06
8.1259922e-06
7.8214442e-06
1.4203053e-05
1.6158875e-05
2.4837224e-05
1.352534e-05
1.2935343e-05
1.4000795e-05
1.4183519e-05
1.9932576e-05
1.739796e-05
1.1777101e-05
9.7988705e-06
1.4471194e-05
2.5756555e-05
1.8723706e-05
2.1635564e-05
2.316645e-05
1.9686501e-05
2.5196471e-05
2.4240867e-05
0.00076123307
0.0015871496
1.1221452e-05
8.2778975e-06
3.2232964e-06
7.4125738e-06
1.4799315e-05
1.4815643e-06
6.0567775e-06
9.8276197e-06
6.5444141e-06
3.5782283e-06
3.7246878e-06
1.605722e-08
1.5639596e-05
1.512312e-08
1.6283612e-05
3.4387626e-06
3.3037121e-06
1.6302336e-08
1.7610797e-05
1.4765508e-08
1.6941237e-05
4.21668e-06
3.9418345e-06
7.2698848e-08
1.8409752e-05
1.6061448e-07
1.895051e-05
4.5997235e-06
5.2749858e-06
8.3779659e-08
1.8166824e-05
5.4020528e-08
1.8648053e-05
4.247614e-08
1.5004933e-05
1.2903773e-08
1.4279489e-05
3.1725387e-06
1.2633322e-05
1.3507517e-05
1.1208987e-05
7.7006168e-06
7.4010719e-06
6.8289435e-06
7.1131254e-06
8.0370788e-06
8.4624614e-06
1.0011461e-05
9.0756442e-06
1.2798123e-05
1.3289711e-05
1.7596797e-05
1.8929293e-05
2.2127143e-05
1.5093978e-05
1.4098684e-05
2.0914397e-05
1.2448426e-05
1.199044e-05
1.8554562e-05
1.1526169e-05
0.008262988
0.016851156
0.007632302
8.2567294e-06
2.3732263e-08
2.8578963e-05
2.732809e-08
2.7985174e-05
6.0166432e-06
2.615655e-05
2.715176e-05
2.749058e-05
2.1089789e-05
6.6039139e-06
6.5406128e-06
3.0997994e-08
3.1573838e-05
3.1112587e-08
3.1388239e-05
6.6551897e-06
6.6938928e-06
3.0791333e-08
3.08426e-05
3.0511152e-08
3.1142732e-05
6.3800577e-06
6.4658237e-06
2.9242059e-08
2.9124998e-05
2.85823e-08
2.9624896e-05
6.2842405e-06
6.1555419e-06
2.9739932e-08
3.0487177e-05
3.0159446e-08
3.0079416e-05
6.7085648e-06
6.6704775e-06
3.1043053e-08
3.1697872e-05
3.1130626e-08
3.176238e-05
6.7330403e-06
6.7201563e-06
3.0751511e-08
3.1701515e-05
2.9682085e-08
3.1763674e-05
6.7376465e-06
6.6514274e-06
1.3662555e-07
2.9668776e-05
3.0579657e-05
6.8927899e-06
9.1158543e-08
3.1572846e-05
2.5594144e-08
3.1168496e-05
0.00012560839
0.00013378117
0.00012435023
0.00023374417
0.00023356092
0.00023538292
0.00017500903
0.00023682304
0.00017538009
0.00013074708
0.00013368143
0.00013308063
0.00023111081
0.00022660433
0.00023120715
0.00020724696
0.00021104967
0.00016959833
0.0002354383
0.00022489867
0.00017350128
0.00020566676
0.00023070637
3.368233e-05
4.3428203e-05
4.7701622e-05
5.4262728e-05
5.831688e-05
6.1666104e-05
1.2392736e-05
1.3371915e-05
1.3501241e-05
1.3684851e-05
1.3605621e-05
1.3219367e-05
1.3044413e-05
1.2635341e-05
1.2848932e-05
1.3716685e-05
1.3745256e-05
1.3738292e-05
1.3755624e-05
1.3673264e-05
1.3665869e-05
6.0895502e-05
6.4136281e-05
6.3492257e-05
6.1497418e-05
6.0216311e-05
5.9465631e-05
6.276595e-05
6.246236e-05
6.4697315e-05
6.202283e-05
6.5168639e-05
6.2821872e-05
6.5839694e-05
6.5552862e-05
6.3090557e-05
6.3369265e-05
6.6022574e-05
6.3290853e-05
6.6135638e-05
6.3365931e-05
6.6033946e-05
6.3274151e-05
6.6130915e-05
5.9758748e-05
5.9034507e-05
6.0414292e-05
6.0998186e-05
6.2278487e-05
6.2538624e-05
6.1931063e-05
6.1505882e-05
6.2572598e-05
6.2802908e-05
6.2714126e-05
6.2804655e-05
6.2723377e-05
0.00019882718
0.00022428061
0.00020337125
0.00021954601
2.1387143e-05
2.110525e-05
3.1575373e-05
3.2031222e-05
2.0397888e-05
2.0783693e-05
3.1105961e-05
3.02869e-05
2.1633002e-05
2.1840558e-05
3.2668778e-05
3.2382124e-05
2.2097311e-05
2.1996308e-05
3.2867413e-05
3.2677079e-05
2.1553797e-05
2.1321307e-05
3.2230132e-05
2.1651828e-05
2.1889348e-05
3.2189631e-05
2.861249e-05
2.2161994e-05
2.2165057e-05
3.2509679e-05
3.2582497e-05
6.6661085e-05
6.7160332e-05
7.3227454e-05
7.2648778e-05
6.7867986e-05
6.756492e-05
7.3662121e-05
7.3984933e-05
6.6068708e-05
6.5388752e-05
7.1177918e-05
7.2010414e-05
6.4604369e-05
6.7942956e-05
6.8161633e-05
7.4193767e-05
6.8074291e-05
6.817583e-05
7.4228099e-05
7.4191404e-05
0.0039973461
0.0014859355
0.00095572632
0.0023552309
0.026195754
1.7120257e-05
2.0260047e-05
1.4543018e-05
1.2433318e-05
0.0025495873
0.0070676531
0.0019202675
0.030763178
4.0644407e-05
2.9979282e-05
0.0001250787
6.6762453e-06
5.1437054e-05
4.706081e-05
8.3153268e-05
0.00011791315
0.00052382971
9.1481646e-05
0.00010192748
0.00013677109
0.00015940743
0.00023323069
0.00010764233
0.00019390294
9.9053128e-05
0.00010784612
7.9842071e-05
6.0914915e-05
0.00012263205
8.3918761e-05
0.00019634886
0.00013998891
0.00011615043
0.00013670184
0.00053264776
0.00067779433
0.00047300364
0.0001754378
0.00019819433
0.0001687095
0.0001125387
0.00012460326
0.00013131788
0.00018636851
0.00015160015
0.00016043816
0.00017709016
0.00014125612
0.00016396092
0.00013179511
0.00011714961
7.70657e-05
0.00052543674
7.3315031e-05
5.6046153e-05
7.5147097e-05
4.8677864e-05
4.9556172e-05
7.8447925e-05
4.9237329e-05
6.1525946e-05
5.409192e-05
6.5579613e-05
6.9948949e-05
6.1317591e-05
0.00014013572
0.0001130573
0.00013564964
7.1279115e-05
8.6378905e-05
7.9409935e-05
0.00010776454
0.00042189925
8.9483226e-05
8.943631e-05
9.3852423e-05
0.00010157214
0.00010474871
0.00010535129
0.00012462386
8.2253326e-05
9.1132857e-05
7.8015434e-05
6.9376309e-05
8.475271e-05
7.3285285e-05
6.5873216e-05
6.719893e-05
7.3022649e-05
9.576412e-05
0.00011712693
0.00010935349
8.4858228e-05
0.00010324259
8.8322918e-05
7.0488713e-05
6.7465766e-05
7.3342819e-05
7.6137815e-05
5.8228547e-05
5.500018e-05
6.122705e-05
6.4328863e-05
0.00010186099
9.998298e-05
9.2553946e-05
7.7357573e-05
0.00010320255
8.4820021e-05
0.00011258083
0.00015200197
0.00012279935
0.00010356778
0.0001330727
0.00012655955
9.5974391e-05
9.7548232e-05
0.0001168624
0.0065730451
0.0037004726
0.0044087037
0.0038649539
0.044735645
0.0081664477
0.0010481947
0.00036595675
0.0026573109
0.009694711
0.0036358995
0.00028875148
0.00035596815
0.0035873784
0.0026201751
0.00079945527
0.0010630476
0.009741366
0.0082306452
0.0001509225
0.00012384617
0.00078849342
0.00027291219
0.0002011381
9.8874136e-07
1.3537649e-06
3.8016543e-06
0.00060027974
2.8045496e-06
1.8986956e-06
0.00046916309
2.3849128e-06
1.1168287e-05
0.0019429363
8.5986743e-06
1.5129692e-06
0.00023029945
1.2256371e-06
2.7244705e-05
0.0064450377
2.2838684e-05
4.9809433e-06
0.0014097978
6.4664037e-06
3.1040712e-05
0.010611958
3.316322e-05
1.4540083e-05
0.0049267817
1.8470962e-05
0.00046195984
1.4586705e-06
1.7565326e-06
0.00060869383
3.8941934e-06
3.0478126e-06
0.0014300492
5.0598758e-06
6.5538262e-06
0.00018554499
8.1827677e-07
9.9381635e-07
0.00010246611
6.7424824e-07
5.6335774e-07
0.0048668245
1.4376029e-05
1.8283782e-05
0.0019153369
1.1033308e-05
8.4899767e-06
0.010628978
3.116412e-05
3.3208791e-05
0.0065122739
2.7420924e-05
2.3033751e-05
6.1285568e-05
5.2183373e-05
0.00016165689
0.00012546049
7.5875938e-05
9.6559732e-05
8.0604559e-05
0.0001013489
0.00016444593
0.00012866139
0.00046187603
0.00035644724
0.00021196115
0.00027432801
6.4588454e-05
5.2248211e-05
3.4992045e-05
4.2567541e-05
2.8951342e-05
2.4148721e-05
0.0010937571
0.00092056252
0.00058808353
0.00074504588
0.00020926136
0.00027087777
0.00045639805
0.00035205077
0.0012374284
0.0013198211
0.0012422255
0.0013215558
0.0005946672
0.00075248824
0.0011006157
0.00092823503
0.0013268684
0.00065565349
0.0020654988
0.0049206145
0.0029483688
0.0010283325
0.0039589308
0.005559525
0.00067925344
0.00080250166
0.00067874698
0.00062618525
0.00027449861
0.00072352212
0.00020516111
0.00021096775
0.00015571649
0.00035170718
0.0001494639
0.0020501822
0.0011638223
0.0004431586
0.00093201405
0.00017837385
0.00035748123
0.00094245992
0.00045005912
0.002275704
0.0022839011
0.0011759442
0.0020618615
0.00014531222
7.9236917e-05
3.929518e-05
6.6365533e-05
3.3701545e-05
0.0017579874
0.0010625503
0.0033817468
0.00076950487
0.0028847043
0.0011124242
0.0036911378
0.00099221729
0.0010114403
0.0012773028
0.00082097279
0.00024365389
0.0010767564
0.00078531648
0.0029229214
0.0019860772
0.003053506
0.0039335732
0.0060901226
0.0044960394
0.002103429
0.0030870687
0.002024375
0.0014725169
0.00086869987
0.0013188357
0.00073791229
0.0006736002
0.00014846274
0.0049415762
0.0045335744
0.0061242183
0.00051565695
0.00058341395
0.00040075816
0.0022946836
0.001365058
0.0016864232
0.0010265325
0.00089687137
0.0012268139
0.0033925796
0.0020090091
0.0022675493
0.0010778983
0.0014065959
0.0015446441
0.0017741495
0.0016955499
0.0013789963
0.00067629833
0.00070562304
0.00086709218
0.0007938229
0.0012327923
0.0010471342
0.0013295993
0.0008532427
0.0010931959
0.000541316
0.00066087741
0.00051095407
0.0005687703
0.0055677372
0.0072186951
0.0072329469
0.0003731907
0.00020241237
0.00028168725
0.00023045858
0.00017334874
0.00099835911
0.001540314
0.001403021
0.0028705882
0.0022620559
0.0020014062
0.0011219692
0.0016181977
0.0016205086
0.0036951378
0.0024126096
0.002414586
0.00023455936
0.00031484241
0.00030157997
0.00021806513
0.00024498446
0.00027780773
0.0013589859
0.000132508
0.0023097122
0.00056278097
0.00089411813
0.00098525344
0.00030663527
0.000728721
0.00077278529
0.00078166768
9.4474739e-05
0.00040534654
0.00030837369
0.00039594604
0.00021253369
0.00013152563
0.0001591595
0.00027274984
0.00021495597
0.00022473683
0.00027975584
0.00073331743
0.0005803509
0.00011714767
9.679872e-05
4.6727496e-05
5.5099774e-05
0.0017463627
0.0014565225
0.00057292693
0.00072442164
0.0024151445
0.0024179226
0.0014698983
0.0017597935
2.8671812e-05
0.00018416309
0.00019001902
0.00018889375
0.00019016042
0.00018639903
0.00017862786
0.017172517
0.022845037
0.024193781
0.013005879
0.035053419
0.044895999
0.011345944
0.035599987
0.00039996404
8.7566477e-05
0.00010052401
0.00017136427
0.00039490158
0.00023453778
0.00010117664
0.0001134331
0.00012247036
0.00011705409
0.00013071313
0.00012454269
0.00014121078
0.00012377177
0.00012694423
0.00010101302
8.0534043e-05
9.6273794e-05
1.9044871e-05
4.3911943e-05
3.6095063e-05
2.6368401e-05
3.3494925e-05
5.3649765e-05
5.8369517e-05
8.6624593e-05
6.2449738e-05
1.8057916e-05
2.1588299e-05
1.838909e-05
2.792347e-05
1.961249e-05
0.00023455477
0.00011881026
0.0002149244
0.00058527881
0.0001362468
0.00013164621
0.00053207112
0.00037631221
0.00011006849
0.00050896278
0.00061208071
0.00011597263
0.0001014398
8.4927417e-05
0.00013917326
0.00011120487
3.5677976e-05
0.00017922744
0.00016739155
3.8585937e-05
2.0848434e-05
2.5393372e-05
2.0225997e-05
0.00012338996
0.00014769776
0.00015333732
0.00039177377
0.00045603384
0.00054567853
0.00018148646
0.00024178236
0.00019103676
0.00017923048
0.00023447732
0.00018933861
0.00047234067
0.00026339783
1.5758766e-05
1.6937151e-05
1.4800276e-05
0.00014492392
0.00014698925
0.00014599348
8.5039697e-05
0.00031857592
7.0024365e-05
5.1146849e-05
0.00026804579
6.5144901e-05
1.6726439e-05
1.9107589e-05
1.6556751e-05
1.6043619e-05
1.861682e-05
1.6228512e-05
2.3079226e-05
2.3145439e-05
2.1395878e-05
1.8333102e-05
2.1152155e-05
1.9705463e-05
0.00012240224
9.5445154e-05
9.2746759e-05
0.00010319801
0.00012062326
0.00010170504
9.8214867e-05
0.00013479662
0.00010101542
9.6786941e-05
0.00010938734
9.3081978e-05
0.00011848054
8.576603e-05
8.9779168e-05
7.0070635e-05
8.4994316e-05
7.3846511e-05
8.2067389e-05
0.00010214373
7.8593507e-05
9.9523715e-05
0.00011965501
0.00010120744
0.00013756261
0.0001039738
0.00010318949
0.00010553466
0.00012653158
0.00010547804
0.00010372789
0.00012442057
0.00010421995
1.6518467e-05
1.8976248e-05
1.6404283e-05
2.1333899e-05
1.6365208e-05
4.314881e-05
5.168268e-05
4.5910183e-05
5.1651707e-05
5.4566453e-05
4.8481667e-05
6.7136163e-05
7.2467417e-05
6.3008881e-05
5.5032743e-05
6.6811356e-05
5.8623334e-05
3.9829385e-05
4.1005054e-05
3.7207207e-05
4.350222e-05
3.2656346e-05
3.515906e-05
2.4449166e-05
2.827651e-05
2.6213611e-05
3.0428516e-05
3.458423e-05
2.8463147e-05
1.384481e-05
1.6153152e-05
1.4421334e-05
1.4762985e-05
1.4730491e-05
2.1177245e-05
1.9799998e-05
8.7902498e-05
8.6720217e-05
8.1415763e-05
7.9010014e-05
6.1374353e-05
6.4479189e-05
8.3555588e-05
8.5393239e-05
8.8799467e-05
8.9214517e-05
1.4706132e-05
1.4571349e-05
3.8517712e-05
4.1045497e-05
5.8337736e-05
5.5266207e-05
3.6077356e-05
3.3799535e-05
2.2631331e-05
2.4208704e-05
1.4252259e-05
1.3309926e-05
0.00032205373
0.00029194004
0.00036477467
1.4496279e-05
1.4627454e-05
1.7320378e-05
1.8503098e-05
8.128923e-05
7.8838639e-05
8.3447548e-05
8.5270888e-05
7.3606921e-05
7.6396617e-05
7.0680011e-05
6.7626004e-05
8.8042193e-05
8.6915935e-05
8.8744289e-05
8.9136926e-05
1.4347506e-05
4.6378684e-05
4.3648196e-05
4.923111e-05
5.2194585e-05
2.9653982e-05
3.1676159e-05
2.7735064e-05
2.5920676e-05
2.0957751e-05
2.5106343e-05
2.2676914e-05
2.3837955e-05
2.8654845e-05
2.41865e-05
2.0628372e-05
2.1988563e-05
2.5121611e-05
0.00013761999
0.00017280391
0.0001741045
0.0001240186
0.00016655464
0.00015495956
0.00010189956
0.00013680995
0.00012493373
0.00011954191
0.00014460771
0.00014931586
0.00014855083
0.00014784608
0.00014094015
2.1005787e-05
2.5501312e-05
8.1008605e-05
0.00010301222
9.7609139e-05
7.5220897e-05
8.3678011e-05
9.0821628e-05
5.6454169e-05
5.9525833e-05
6.6349899e-05
6.0573242e-05
7.7641068e-05
7.1716057e-05
3.2215007e-05
4.0888873e-05
3.6542703e-05
4.0850751e-05
4.4292998e-05
4.7119261e-05
)


1199
(
1.2185089e-07
1.3254974e-08
3.3554786e-06
1.5111732e-08
3.6373874e-06
1.4231165e-08
3.092431e-06
1.5080945e-08
2.8535207e-06
9.8154834e-09
1.8175476e-06
9.1362791e-09
1.9528571e-06
2.2856174e-09
6.8772716e-07
2.8768934e-08
9.9939229e-07
7.9046531e-09
1.6937325e-06
8.5085639e-09
1.5800052e-06
8.2834435e-07
7.4279721e-07
1.4107835e-08
4.0299881e-06
4.3389558e-08
3.9015136e-06
9.6421048e-07
1.1934896e-06
2.0908721e-06
3.4736516e-06
4.0156055e-07
1.7691262e-06
2.6207869e-06
1.6048001e-06
6.2452891e-07
6.7842022e-07
1.3223839e-08
2.4412574e-06
1.2256732e-08
2.6373637e-06
5.7705149e-07
5.3428495e-07
4.2784687e-07
3.9834915e-07
1.0556661e-08
2.2631304e-06
1.1368004e-08
2.1008747e-06
4.6011986e-07
4.9547036e-07
2.6785395e-07
2.7480205e-07
1.5672257e-09
1.2759135e-06
4.4288627e-09
1.1634766e-06
2.703112e-07
2.8398121e-07
3.4666281e-07
3.7135637e-07
7.2357331e-09
1.3752379e-06
6.2509412e-09
1.4746997e-06
3.2379777e-07
3.0267227e-07
2.2481459e-07
1.4420328e-07
3.1541985e-07
1.5317287e-05
1.7681493e-05
1.5065841e-05
8.3658037e-06
1.3075905e-05
2.6674007e-05
1.9096424e-05
7.0735189e-06
9.1540771e-06
1.1015583e-05
1.7104448e-05
9.7508054e-06
1.1310395e-05
1.0613749e-06
9.2615047e-07
1.1903109e-06
1.3136593e-06
2.4956729e-05
2.2405563e-05
1.0917759e-05
7.0187827e-06
6.6617949e-06
5.8465159e-06
7.9391572e-06
6.0095899e-06
3.8700305e-06
4.9223053e-06
4.9128606e-06
1.499798e-06
1.6660591e-06
2.2681874e-06
1.9075588e-06
2.7338389e-06
3.759819e-06
1.3724855e-06
1.264414e-06
1.0819725e-06
1.1683929e-06
8.0657085e-07
8.6678078e-07
1.0035046e-06
9.3202605e-07
6.3176472e-07
7.8323265e-07
1.5436682e-06
1.4314976e-06
9.5352869e-06
7.3935537e-06
8.7767711e-06
8.0508761e-06
1.0215003e-05
9.1616961e-06
8.6387232e-06
1.0815788e-05
1.2150519e-05
1.0612331e-05
1.0345471e-05
1.2446623e-05
1.178198e-05
9.6198607e-06
1.1337758e-05
1.0013929e-05
4.7914761e-07
5.0969048e-07
5.6854466e-07
5.3465587e-07
7.5065208e-07
6.9936196e-07
6.0883365e-07
6.5242056e-07
1.2198718e-06
1.0587226e-06
1.2156416e-06
1.4054096e-06
1.3699532e-06
1.5120403e-06
1.7431795e-06
1.5795466e-06
1.3231964e-06
1.6580188e-06
1.4303108e-06
1.5321464e-06
6.8609076e-07
8.8172302e-07
7.6270239e-07
1.0026131e-06
8.7687997e-07
8.1698355e-07
1.0860524e-06
1.1715618e-06
1.9003144e-06
1.8654799e-06
1.7223351e-06
2.0584581e-06
1.7756449e-06
1.6472316e-06
1.8983723e-06
2.0454807e-06
2.0686614e-06
2.410882e-06
2.2397302e-06
2.2278919e-06
4.7396177e-07
1.2831031e-05
1.3139302e-05
2.2614162e-05
1.4854763e-05
2.0213991e-05
6.163078e-06
5.3602639e-06
4.6090999e-06
5.8245275e-06
2.3849836e-06
2.6162771e-06
3.4605054e-06
3.5212416e-06
3.4160532e-06
4.475753e-06
2.9622139e-06
4.3694827e-06
1.3032796e-06
1.4026774e-06
2.1112732e-06
1.9433978e-06
1.6237003e-06
1.5084144e-06
2.2641566e-06
2.4447959e-06
2.213434e-06
2.0434158e-06
3.0608373e-06
3.3006115e-06
1.7502267e-06
1.8895571e-06
2.8414249e-06
2.6267146e-06
1.0040611e-05
9.7848722e-06
9.4194338e-06
9.6311642e-06
9.0714578e-06
9.4584886e-06
9.1040187e-06
8.7094758e-06
6.9190612e-06
7.5565663e-06
7.2346264e-06
6.5537437e-06
8.626252e-06
8.121824e-06
7.7673973e-06
8.2852858e-06
1.662073e-06
1.8235093e-06
1.5638959e-06
2.144849e-06
1.1983394e-06
1.1068819e-06
1.4782413e-06
1.7837088e-06
9.5336525e-07
1.031146e-06
1.5589253e-06
1.2825101e-06
9.6984341e-06
2.7207583e-06
2.072603e-06
2.4386368e-06
2.2895891e-06
2.9497137e-06
2.6795369e-06
2.4906284e-06
3.1821716e-06
0.04835711
0.001138328
0.00020110621
0.00090032735
0.00036784796
0.00045603217
9.4210888e-05
0.00016660784
7.3798915e-05
4.8325334e-05
4.6902805e-07
2.667828e-06
1.9649629e-05
1.8896361e-05
7.3388981e-07
0.00013869624
4.1363658e-07
5.5659337e-06
0.001439594
6.8600652e-06
1.035239e-06
0.00024428721
1.3010809e-06
4.4726984e-06
0.00071409123
3.6236484e-06
0.00011491903
2.4939851e-07
3.1344517e-07
0.00029872844
1.9354194e-06
1.5907984e-06
0.00056899008
2.3810728e-06
2.9208751e-06
1.6239964e-05
1.2302301e-05
2.1433418e-05
3.7520563e-05
3.0584254e-05
2.1763855e-05
2.5417272e-05
4.6264535e-05
5.6111923e-05
8.2716286e-05
6.8000524e-05
0.0001012169
0.0001242815
0.00068181912
0.0005210407
0.00010425791
0.00018643185
0.00022480189
8.6122314e-05
8.8031572e-05
8.7787531e-05
8.2221837e-05
5.2533664e-05
8.6312303e-05
4.2004184e-05
0.00071483419
0.0013072603
0.0010912663
0.00094491409
0.00052574841
0.00075658263
0.00010101644
0.00010282611
0.00050769833
0.00010317089
9.8665171e-05
0.00036156421
6.154713e-05
0.00095727244
0.0006775524
0.00087237956
0.00048503712
3.6307933e-05
3.2148512e-05
6.7731619e-05
7.5773565e-05
6.2401767e-05
6.6024511e-05
4.4520337e-05
5.476913e-05
7.1223417e-05
8.812708e-05
7.3244314e-05
8.8618701e-05
7.3950408e-05
7.4047522e-05
7.3819761e-05
5.818616e-05
5.3702778e-05
6.1352934e-05
6.3363092e-05
3.1241897e-05
4.0182047e-05
4.7732816e-05
6.2660586e-05
5.7575005e-05
0.00012726419
0.00015247176
0.00027667876
6.452037e-05
6.4361016e-05
6.3985643e-05
9.1014422e-05
0.00012703243
0.00011637668
7.8451646e-05
7.0317321e-05
0.00010066426
0.00012538696
0.00010462869
0.00013129382
0.00013301655
0.00010457697
0.00012949132
0.00013200703
0.0042786603
0.0036837934
0.0052826097
0.0011302806
0.0057606666
2.0685552e-05
1.1612835e-05
2.3717865e-05
2.3609515e-06
9.5495733e-06
1.5391578e-05
1.0434543e-05
6.20357e-06
6.3834927e-06
2.815003e-08
2.7783444e-05
2.677269e-08
2.8645489e-05
6.025629e-06
5.846009e-06
2.827809e-08
3.0300342e-05
2.5323805e-08
2.9486469e-05
7.0427193e-06
6.6720742e-06
1.1977697e-07
2.9972105e-05
2.6027253e-07
3.1325455e-05
7.5724782e-06
8.5504056e-06
1.4005924e-07
3.0871289e-05
9.1338604e-08
3.1268936e-05
7.6573908e-08
2.6895893e-05
2.3047039e-08
2.5804988e-05
5.5612595e-06
5.6644944e-06
2.3151485e-05
2.4590494e-05
0.00012051248
0.00013087615
0.00012757995
0.00022034144
0.00022595456
0.00016511373
0.00022292384
0.00022401247
0.00016510869
0.00019186967
0.00021128292
4.190752e-05
4.33906e-05
4.73826e-05
3.8123911e-05
3.5885196e-05
2.5265943e-05
2.9311902e-05
3.2121699e-05
1.7843038e-05
2.2355179e-05
5.684061e-05
4.808783e-05
5.2274385e-05
5.2352218e-05
6.0852554e-05
5.9253729e-05
5.598479e-05
6.4385483e-05
7.215291e-05
6.8008746e-05
6.6462546e-05
7.3842901e-05
7.0026003e-05
6.2083865e-05
6.4482144e-05
6.7440901e-05
1.3178318e-05
1.2812432e-05
1.2066279e-05
1.2445816e-05
1.3584381e-05
1.4113409e-05
1.6202767e-05
1.4919138e-05
1.1671806e-05
1.1296521e-05
6.9135678e-05
6.9948783e-05
6.4520771e-05
6.6102339e-05
6.1816708e-05
5.9312893e-05
6.3179636e-05
6.0550126e-05
6.1870555e-05
5.8057291e-05
5.9113497e-05
6.0523409e-05
5.6766513e-05
0.00021250001
0.00019263419
6.1153425e-05
5.7597783e-05
5.6354766e-05
5.8805549e-05
5.9984593e-05
5.5078671e-05
2.1577677e-05
2.2110831e-05
2.9181476e-05
3.1800292e-05
4.3824061e-05
3.8164996e-05
3.6013188e-05
4.5623086e-05
2.4368572e-05
3.1899772e-05
2.3121076e-05
3.4196612e-05
2.1248458e-05
2.0703482e-05
3.0902554e-05
3.1538595e-05
1.946973e-05
2.0114824e-05
3.0064264e-05
2.8887126e-05
1.8599062e-05
6.5026697e-05
6.3731583e-05
6.9337473e-05
7.0442232e-05
6.2307087e-05
6.7808807e-05
6.5759011e-05
6.7043885e-05
6.555255e-05
7.0845577e-05
7.0092483e-05
7.0569799e-05
6.6812106e-05
7.3046175e-05
7.1335893e-05
6.9328161e-05
7.6467805e-05
4.9107571e-05
5.3490986e-05
5.6336607e-05
5.1210624e-05
6.0690276e-05
5.7322944e-05
6.0254659e-05
6.3993751e-05
6.9629163e-05
6.8121707e-05
7.1749598e-05
7.295817e-05
6.360879e-05
6.6090075e-05
6.9676358e-05
6.6981449e-05
0.00073099346
0.0059093895
0.0040932157
0.0032843964
2.8799659e-05
2.7944468e-05
2.7075682e-05
2.9636157e-05
3.0451716e-05
3.1989491e-05
3.1238079e-05
0.00023417456
0.00028861609
0.00018935872
0.00015331944
0.015362526
0.021883522
0.008359742
0.0098328879
0.0030464039
0.10549677
0.025974577
0.0088985127
0.0078890382
0.0080007722
6.4627473e-06
4.9266465e-06
1.865038e-05
1.0493958e-06
8.6151174e-06
7.4449341e-06
3.199785e-05
2.7494554e-05
0.000238367
1.6533493e-05
3.1903282e-05
5.2258777e-05
4.785969e-05
4.7927766e-05
3.1323114e-05
5.3360268e-05
5.6882922e-05
6.0468297e-05
4.2555067e-05
2.9701008e-05
5.0217139e-05
4.1720984e-05
5.3082482e-05
3.1419461e-05
2.9144675e-05
3.3222304e-05
0.00019625295
0.00021001199
0.00024889992
3.7799973e-05
4.5075202e-05
3.9662184e-05
3.0412986e-05
3.5512401e-05
3.4572791e-05
4.6625787e-05
4.2362458e-05
4.1157376e-05
3.5043211e-05
4.2883713e-05
5.3531919e-05
4.3330399e-05
2.5438868e-05
3.1602421e-05
0.00023071975
1.2679122e-05
2.8778732e-05
3.955476e-05
2.7422625e-05
2.8164839e-05
1.2779579e-05
2.6514043e-05
3.1795918e-05
2.9373133e-05
3.6361048e-05
3.64432e-05
3.3613266e-05
2.9104414e-05
2.2947449e-05
2.6171847e-05
3.1057559e-05
3.5350409e-05
3.4615091e-05
5.6846277e-05
0.00018055504
4.4985589e-05
3.2204859e-05
3.5941295e-05
3.6280772e-05
1.9984343e-05
1.7943456e-05
2.2482159e-05
4.880394e-05
5.016301e-05
4.5345305e-05
3.8987084e-05
4.5851928e-05
4.1835591e-05
3.0406815e-05
3.2914175e-05
3.379404e-05
3.2185505e-05
3.6078147e-05
3.6322003e-05
5.1543676e-05
6.0791118e-05
5.5060948e-05
4.3907315e-05
4.1159052e-05
4.6760405e-05
4.9809724e-05
3.3835122e-05
3.1575714e-05
3.6081655e-05
3.8528369e-05
4.167319e-05
4.3803159e-05
4.0425011e-05
3.8129303e-05
4.8170806e-05
3.9418343e-05
4.2982881e-05
5.363626e-05
4.3578146e-05
5.3643621e-05
6.5612036e-05
6.1115703e-05
4.8908068e-05
4.6009961e-05
5.5617616e-05
0.00025297655
7.3573094e-05
0.0045956345
0.0018858491
0.00030970167
0.0014985561
0.0043338035
4.0336659e-05
0.00014357695
0.00012041701
0.0039728705
0.0034411017
0.00059176169
0.00074325439
0.0027863288
0.0022656741
6.309987e-05
3.4197931e-05
2.7646293e-05
1.3257986e-07
1.9928131e-07
3.4944982e-07
5.4364197e-05
2.8521157e-07
1.8885835e-05
0.0046169859
1.8958657e-05
8.7689354e-06
0.0023499317
1.0611978e-05
1.796457e-05
0.0038890173
1.6423586e-05
1.3559869e-06
0.00020805778
1.1280334e-06
4.1058803e-07
8.6225361e-05
4.7910981e-07
1.6504427e-06
0.00038178965
2.0062053e-06
7.1138067e-06
0.0011855301
5.7764389e-06
4.6983956e-05
1.8069591e-07
1.9731128e-07
0.0043925233
1.6724337e-05
1.817175e-05
0.002879692
1.4770638e-05
1.2707786e-05
0.0033462433
1.234781e-05
1.4417999e-05
0.0018139036
1.0274675e-05
8.4694137e-06
0.00017226573
7.8888221e-07
9.376435e-07
0.00010160103
6.6328794e-07
5.6397751e-07
0.00047382472
3.030292e-06
2.4690013e-06
0.00093757157
3.7610415e-06
4.6429919e-06
8.3554075e-06
7.7046749e-06
1.5170388e-05
1.3017516e-05
9.493631e-06
1.1030668e-05
0.00077634061
0.00077930171
0.00068928436
0.0007482628
0.00036622172
0.00044285264
0.00061172925
0.00052691493
0.00073998645
0.00067715256
0.00051229312
0.00059747614
0.00042906241
0.00035394676
5.807972e-05
4.8239476e-05
3.3809852e-05
4.0253709e-05
1.7703323e-05
2.06483e-05
2.8527225e-05
2.4217188e-05
7.0381373e-05
8.567097e-05
0.00012888859
0.00010490717
0.00029910199
0.00024289543
0.00015906586
0.00019647426
0.00025634281
0.00024544522
0.0002870935
0.00070756967
0.0033198832
0.0050141751
0.0025211135
0.00097300539
0.00039512299
0.00052931896
0.00072990799
0.00079740833
0.0024568305
0.0047406605
0.0018038915
3.956897e-05
2.3106276e-05
3.5265713e-05
1.9419479e-05
0.00013207473
7.7127259e-05
4.0662749e-05
6.5758732e-05
0.0015560875
0.001392551
0.00077019167
0.0012531714
0.00015795944
0.0002865907
0.00064150862
0.00034781248
0.0014918832
0.0010557805
0.00050375174
0.0009010817
0.00041493476
0.00033013291
0.00052926206
0.00074247717
0.00029791518
0.0021854297
0.00063826339
0.0009823448
0.0010101673
0.00016753773
0.0001543232
0.000113762
4.8239459e-05
0.00026942112
0.00024471904
0.00038566876
0.00020866244
0.00028490766
0.00051953442
0.00054991695
0.00039267836
0.0041424706
0.0032899048
0.0043459233
0.0047827069
0.0055641493
0.0052305761
0.0003900163
0.00032683202
0.0015816894
0.001854772
0.0023509094
0.0016338121
0.004074851
0.0051712961
0.004256286
0.00042993357
0.00033913113
0.00043107065
0.00032484287
0.00036768704
0.00040676443
0.0017002521
0.0017341707
0.0014145757
0.00089015103
0.0013353783
0.0011320853
0.0032288664
0.0020628342
0.0023565714
0.0013062527
0.0018559457
0.0018193295
0.0012464717
0.0015345593
0.0017056564
0.0036005567
0.0026307783
0.0025611849
0.0031881108
0.0025481079
0.0023334799
0.0018110176
0.0013449868
0.000782443
0.001127439
0.0032471099
0.0022793107
0.0032012743
3.9452388e-05
3.1637366e-05
0.00044492361
0.00062374775
0.00050439424
0.00056322852
0.00070026819
0.00054892271
0.00076316207
0.00076879987
0.00093992725
0.0012979543
0.00089234996
0.0011304384
5.1711435e-05
5.9822146e-05
6.4632722e-05
5.3291587e-05
6.5588581e-05
6.6356248e-05
0.00020352343
1.8636921e-05
0.0027201702
0.0013116522
0.0011305013
0.0037302841
0.0021401143
0.0035764972
0.0005907502
0.00070740238
1.4366417e-05
0.0026729469
0.001705119
0.0020345189
3.365767e-05
2.0966455e-05
2.6995556e-05
3.0066594e-05
2.576018e-05
0.0015618168
0.0015070865
0.00092824634
0.0010840495
0.0013696259
0.001226095
0.00062012221
0.0007457118
0.00010925476
9.2238272e-05
4.7774831e-05
5.5531516e-05
0.00019291669
0.0002327484
0.00052166899
0.00042988273
0.00033570083
0.00012877716
0.00014166325
0.00016100186
0.0001509487
0.00017031153
0.00017671255
0.0026458866
0.0021439221
0.0046712772
0.047264633
0.00085247295
0.00037501238
0.00038617693
0.00060358642
0.00096258454
0.00077619418
0.00038983862
7.1298493e-05
9.0591115e-05
7.6348695e-05
0.00015420029
0.00012166339
0.00010950126
0.00011386421
0.00015927261
0.00015392771
0.00015576397
0.00015631135
7.7900952e-05
0.00012406334
0.00010903471
8.4409255e-05
0.0001030189
0.00014749849
0.00014359099
0.0001767081
0.00014732504
5.9262483e-05
8.4420741e-05
6.2875998e-05
9.0221949e-05
6.4215701e-05
0.0016613289
0.00051052962
0.00086592527
0.00038837832
8.3800735e-05
7.7927445e-05
0.00096975428
0.00074417491
0.00018177987
0.0006563808
0.00093144723
0.00017876581
0.00048642104
0.00035973773
0.0005244283
0.00038335284
0.00011555175
0.00055838791
0.00061223604
0.0001228253
8.1846934e-05
8.597027e-05
6.9111615e-05
0.00060275994
0.00063007767
0.00075374944
0.0012314918
0.0016918976
0.00060798963
0.0012668635
0.0013878137
0.0011075446
0.00074911988
0.0011131519
0.00092326809
0.0012955748
0.0010016291
5.1780159e-05
5.3478073e-05
4.6851258e-05
0.00010727514
0.00013055264
0.00013841665
0.00017997987
0.00088080226
0.00017297747
0.0001479389
0.0008195816
0.00016818706
6.4866264e-05
7.1245473e-05
6.1486743e-05
5.4838181e-05
6.6416432e-05
5.7779388e-05
7.1256066e-05
7.5144452e-05
6.6575923e-05
5.7678127e-05
6.9006483e-05
6.1695797e-05
7.4099357e-05
6.3256289e-05
5.9510837e-05
8.0049888e-05
8.5403702e-05
7.5548067e-05
6.7431377e-05
9.1421711e-05
7.2037427e-05
0.00012236089
0.00014638951
0.00012485642
0.00016892431
0.00012944662
0.0001277674
0.00013186201
0.00015583775
0.00013192201
0.00013126065
0.0001769434
0.00013300237
0.00011862941
0.0001325542
0.0001137722
0.00014319639
0.00010418284
0.0001094624
8.5724351e-05
0.00010390007
9.0009528e-05
9.833314e-05
0.00010804466
9.3654203e-05