/*--------------------------------*- C++ -*----------------------------------*\
  =========                 |
  \\      /  F ield         | OpenFOAM: The Open Source CFD Toolbox
   \\    /   O peration     | Website:  https://openfoam.org
    \\  /    A nd           | Version:  8
     \\/     M anipulation  |
\*---------------------------------------------------------------------------*/
/*   Windows 32 and 64 bit porting by blueCAPE: http://www.bluecape.com.pt   *\
|  Based on Windows porting (2.0.x v4) by Symscape: http://www.symscape.com   |
\*---------------------------------------------------------------------------*/
FoamFile
{
    version     2.0;
    format      ascii;
    class       labelListList;
    location    "constant/vegetation";
    object      globalFaceFaces;
}
// * * * * * * * * * * * * * * * * * * * * * * * * * * * * * * * * * * * * * //


369
(

1047
(
20
22
1113
1133
1135
1138
1139
1141
2089
2090
2091
2092
2093
2094
2095
2096
2097
2098
2099
2100
2101
2102
2103
2104
2105
2106
2107
2108
2109
2110
2111
2112
2113
2114
2115
2116
2117
2118
2119
2120
2121
2122
2123
2124
2125
2126
2127
2128
2129
2130
2131
2132
2133
2134
2135
2136
2137
2138
2139
2140
2141
2142
2143
2144
2145
2146
2147
2148
2149
2150
2151
2152
2153
2154
2155
2156
2157
2158
2159
2160
2161
2162
2163
2164
2165
2166
2167
2168
2169
2170
2171
2172
2173
2174
2175
2176
2177
2178
2179
2180
2181
2182
2183
2184
2185
2186
2187
2188
2189
2190
2191
2192
2193
2194
2195
2196
2197
2198
2199
2200
2201
2202
2203
2204
2205
2206
2207
2210
2216
2317
2319
2342
3082
3083
3084
3085
3086
3087
3088
3089
3090
3091
3092
3093
3094
3095
3096
3097
3098
3099
3100
3101
3102
3103
3104
3105
3106
3107
3108
3109
3110
3111
3114
3115
3116
3117
3119
3121
3123
3192
3210
3211
3212
3213
3214
3215
3216
3217
3295
3296
3297
3298
3301
3303
3305
3306
3307
3308
3310
3312
3449
3450
4028
4030
4039
4040
4041
4042
4044
4046
4048
4051
4053
4054
4055
4056
4057
4058
4059
4060
4061
4062
4063
4064
4065
4066
4067
4068
4069
4070
4071
4072
4073
4074
4075
4076
4077
4078
4079
4080
4081
4082
4083
4084
4085
4086
4087
4088
4089
4090
4091
4092
4093
4095
4096
4098
4099
4100
4101
4107
4108
4109
4111
4113
4114
4115
4117
4118
4130
4131
4140
4141
4142
4143
4182
4202
4209
4211
4212
4213
4214
4216
4231
4245
4246
4248
4251
4252
4259
4270
4271
4272
4273
4274
4275
4276
4277
4282
4283
4284
4285
4286
4287
4292
4293
4294
4295
4296
4298
4299
4300
4301
4302
4303
4304
4305
4306
4307
4333
4334
4335
4336
4337
4338
4339
4340
4345
4346
4347
4348
4349
4350
4351
4352
4356
4357
4358
4359
4360
4361
4362
4363
4364
4381
4382
4383
4384
4385
4386
4387
4388
4389
4390
4391
4392
4393
4394
4395
4396
4397
4398
4400
4401
4402
4403
4404
4405
4406
4407
4408
4413
4414
4415
4416
4417
4418
4419
4420
4421
4422
4423
4424
4426
4429
4430
4431
4433
4434
4435
4436
4457
4458
4460
4461
4516
4517
4518
4519
4520
4523
4524
4532
4539
4597
4598
4599
4600
4601
4602
4603
4604
4605
4606
4607
4608
4609
4610
4611
4612
4613
4614
4615
4616
4617
4618
4619
4620
4621
4622
4623
4624
4625
4626
4627
4628
4629
4630
4631
4632
4633
4634
4635
4636
4637
4638
4639
4640
4641
4642
4643
4644
4645
4646
4647
4648
4649
4650
4651
4652
4653
4654
4655
4656
4657
4658
4659
4660
4661
4662
4663
4664
4665
4666
4667
4668
4669
4670
4671
4672
4673
4674
4675
4676
4677
4678
4679
4680
4681
4682
4683
4684
4685
4686
4687
4688
4689
4690
4691
4692
4693
4694
4695
4696
4697
4698
4699
4700
4701
4702
4703
4704
4705
4706
4716
4717
4720
4721
4799
4800
4801
4802
4803
4804
4805
4806
4807
4808
4809
4810
4811
4812
4813
4814
4815
4816
4817
4818
4819
4820
4821
4822
4823
4824
4825
4826
4827
4828
4829
4830
4831
4832
4833
4834
4835
4836
4837
4838
4839
4840
4841
4842
4843
4844
4845
4846
4847
4848
4849
4850
4851
4852
4853
4854
4855
4856
4857
4858
4859
4860
4861
4862
4863
4864
4865
4866
4867
4868
4869
4870
4871
4872
4873
4874
4875
4876
4877
4878
4879
4880
4881
4882
4883
4884
4885
4886
4887
4888
4889
4890
4891
4892
4893
4894
4895
4896
4897
4898
4899
4900
4901
4902
4903
4904
4905
4906
4907
4908
4909
4910
4911
4912
4913
4914
4915
4916
4917
4918
4919
4920
4921
4922
4923
4924
4925
4926
4927
4928
4929
4930
4931
4932
4933
4934
4935
4936
4937
4938
4939
4940
4941
4942
4943
4944
4945
4946
4947
4948
4949
4950
4951
4952
4953
4954
4955
4956
4957
4958
4959
4960
4961
4962
4963
4964
4965
4966
4967
4968
4969
4970
4971
4972
4973
4974
4975
4976
4977
4978
4979
4980
4981
4982
4983
4984
4985
4986
4987
4988
4989
4990
4991
4992
4993
4994
4995
4996
4997
4998
4999
5000
5001
5002
5003
5004
5005
5006
5007
5008
5009
5010
5011
5012
5013
5014
5015
5016
5017
5018
5019
5020
5021
5022
5023
5024
5025
5026
5027
5028
5029
5030
5031
5032
5033
5034
5035
5036
5037
5038
5039
5040
5041
5042
5043
5044
5045
5046
5047
5048
5049
5050
5051
5052
5053
5054
5055
5056
5057
5058
5059
5060
5061
5062
5063
5064
5065
5066
5067
5068
5069
5070
5071
5072
5073
5074
5078
5079
5080
5083
5086
5087
5088
6204
6266
6267
6270
6271
6272
6273
6274
6316
6317
6318
6319
6320
6321
6322
6323
6324
6325
6326
6327
6332
6333
6334
6335
6336
6337
6338
6339
6340
6341
6342
6343
6344
6380
6381
6382
6395
6396
6397
6398
6399
6400
6401
6402
6403
6404
6405
6412
6413
6414
6415
6416
6417
6499
6500
6501
6533
6534
6535
6536
6537
6586
6661
6662
6663
6664
6665
6666
6888
6889
6890
6891
6892
6893
6894
6895
6896
6897
6898
6899
6900
6901
6902
6903
6904
6905
6906
6907
6908
6909
6910
6911
6912
6913
6914
6915
6916
6917
6918
6919
6920
6921
6922
6923
6924
6925
6926
6927
6928
6929
6930
6931
6932
6933
6934
6935
6936
6937
6938
6939
6940
6941
6942
6943
6944
6945
6946
6947
6948
6949
6950
6951
6952
6953
6954
6955
6956
6957
6958
6959
6960
6961
6962
6963
6964
6965
6966
6967
6968
6969
6970
6971
6972
6973
6974
6975
7013
7015
7016
7018
7019
7021
7022
7024
7025
7027
7028
7030
7031
7033
7034
7036
7037
7040
7041
7043
7044
7046
7047
7049
7050
7052
7053
7056
7057
7075
7076
7077
7095
7096
7100
7101
7115
7116
7117
7118
7122
7123
7127
7128
7132
7133
7137
7138
7145
7149
7150
7154
7155
7159
7160
7164
7165
7169
7170
7171
7172
7173
7174
7175
7176
7177
7178
7179
7180
7181
7182
7183
7184
7185
7186
7187
7188
7189
7190
7191
7192
7193
7194
7195
7196
7197
7198
7199
7200
7201
7202
7203
7204
7205
7206
7207
7208
7209
7210
7211
7212
)


1199
(
1037
1110
1111
1112
1113
1114
1115
1116
1117
1118
1119
1120
1121
1122
1123
1124
1125
1126
1127
1128
1129
1130
1131
1132
1133
1134
1135
1136
1137
1138
1139
1140
1141
1142
1143
1152
1153
1154
1155
1156
1157
1158
1159
1160
1161
1162
1163
1164
1165
1166
1167
1173
1174
1175
1176
1177
1178
1179
1180
1181
1182
1183
1184
1185
1186
1187
1188
1196
1198
1214
1425
1427
1468
1469
1470
1475
1476
1477
1488
1516
1518
1525
1526
1528
1530
1537
1538
1540
1541
1572
1574
1575
1576
1577
1578
1579
1580
1581
1582
1583
1584
1585
1586
1587
1590
1591
1592
1593
1594
1595
1596
1597
1600
1601
1608
1609
1610
1611
1612
1613
1614
1615
1616
1617
1618
1619
1620
1621
1622
1623
1624
1625
1630
1631
1632
1633
1634
1635
1636
1637
1714
1715
1716
1717
1726
1727
1728
1729
1734
1735
1736
1737
1738
1739
1740
1741
1742
1743
1744
1745
1774
1775
1776
1777
1778
1779
1780
1781
1782
1783
1784
1785
1809
1842
1843
1844
1846
1847
1858
1859
1860
1861
1862
1863
1864
1865
1866
1867
1868
1869
1872
1873
1874
1875
1876
1877
1878
1879
1880
1881
1882
1883
1884
1885
1886
1887
1890
1891
1892
1893
1894
1895
1896
1897
1898
1899
1900
1901
1902
1903
1904
1905
1910
1911
1912
1913
1914
1915
1916
1917
1918
1919
1920
1921
1963
1980
1981
1982
1983
1984
1985
1986
1987
2088
2089
2090
2091
2092
2093
2094
2095
2096
2097
2098
2099
2100
2101
2102
2103
2104
2105
2106
2107
2108
2109
2110
2111
2112
2113
2114
2115
2116
2117
2118
2119
2120
2121
2122
2123
2124
2125
2126
2127
2128
2129
2130
2131
2132
2133
2134
2135
2136
2137
2138
2139
2140
2141
2142
2143
2144
2145
2146
2147
2148
2149
2150
2151
2152
2153
2154
2155
2156
2157
2158
2159
2160
2161
2162
2163
2164
2165
2166
2167
2168
2169
2170
2171
2172
2173
2174
2175
2176
2177
2178
2179
2180
2181
2182
2183
2184
2185
2186
2187
2188
2189
2190
2191
2192
2193
2194
2195
2196
2197
2198
2199
2200
2201
2202
2203
2204
2205
2206
2207
2216
2222
2223
2224
2268
2317
3082
3083
3084
3085
3086
3087
3088
3089
3090
3091
3092
3093
3094
3095
3096
3097
3098
3099
3100
3101
3102
3103
3104
3105
3106
3107
3108
3109
3110
3111
3114
3115
3116
3117
3118
3119
3121
3123
3126
3134
3135
3138
3139
3140
3141
3155
3156
3182
3183
3184
3185
3186
3187
3188
3189
3190
3191
3192
3193
3194
3195
3196
3197
3198
3199
3200
3201
3202
3203
3204
3205
3206
3207
3208
3209
3210
3211
3212
3213
3214
3215
3216
3217
3224
3225
3241
3243
3249
3250
3251
3256
3257
3258
3259
3260
3261
3262
3263
3276
3277
3284
3285
3286
3287
3288
3294
3295
3296
3297
3298
3299
3300
3301
3302
3303
3304
3305
3306
3307
3308
3309
3310
3311
3312
3313
3314
3319
3331
3332
3333
3334
3336
3337
3339
3340
3341
3342
3343
3344
3345
3346
3348
3349
3350
3363
3364
3365
3366
3367
3368
3369
3370
3371
3372
3373
3374
3375
3376
3377
3378
3386
3388
3389
3390
4057
4059
4065
4081
4083
4087
4089
4517
4518
4519
4520
4523
4524
4526
4531
4532
4534
4535
4536
4537
4538
4597
4598
4599
4600
4601
4602
4603
4604
4605
4606
4607
4608
4609
4610
4611
4612
4613
4614
4615
4616
4617
4618
4619
4620
4621
4622
4623
4624
4625
4626
4627
4628
4629
4630
4631
4632
4633
4634
4635
4636
4637
4638
4639
4640
4641
4642
4643
4644
4645
4646
4647
4648
4649
4650
4651
4652
4653
4654
4655
4656
4657
4658
4659
4660
4661
4662
4663
4664
4665
4666
4667
4668
4669
4670
4671
4672
4673
4674
4675
4676
4677
4678
4679
4680
4681
4682
4683
4684
4685
4686
4687
4688
4689
4690
4691
4692
4693
4694
4695
4696
4697
4698
4699
4700
4701
4702
4703
4704
4705
4706
4800
4801
4802
4803
4804
4805
4806
4807
4808
4809
4810
4811
4812
4813
4814
4815
4816
4817
4818
4819
4820
4821
4822
4823
4824
4825
4826
4827
4828
4829
4830
4831
4832
4833
4834
4835
4836
4837
4838
4839
4840
4841
4842
4843
4844
4845
4846
4847
4848
4849
4850
4851
4852
4853
4854
4855
4856
4857
4858
4859
4860
4861
4862
4863
4864
4865
4866
4867
4868
4869
4870
4871
4872
4873
4874
4875
4876
4877
4878
4879
4880
4881
4882
4883
4884
4885
4886
4887
4888
4889
4890
4891
4892
4893
4894
4895
4896
4897
4898
4899
4900
4901
4902
4903
4904
4905
4906
4907
4908
4909
4910
4911
4912
4913
4914
4915
4916
4917
4918
4919
4920
4921
4922
4923
4924
4925
4926
4927
4928
4929
4930
4931
4932
4933
4934
4935
4936
4937
4938
4939
4940
4941
4942
4943
4944
4945
4946
4947
4948
4949
4950
4951
4952
4953
4954
4955
4956
4957
4958
4959
4960
4961
4962
4963
4964
4965
4966
4967
4968
4969
4970
4971
4972
4973
4974
4975
4976
4977
4978
4979
4980
4981
4982
4983
4984
4985
4986
4987
4988
4989
4990
4991
4992
4993
4994
4995
4996
4997
4998
4999
5000
5001
5002
5003
5004
5005
5006
5007
5008
5009
5010
5011
5012
5013
5014
5015
5016
5017
5018
5019
5020
5021
5022
5023
5024
5025
5026
5027
5028
5029
5030
5031
5032
5033
5034
5035
5036
5037
5038
5039
5040
5041
5042
5043
5044
5045
5046
5047
5048
5049
5050
5051
5052
5053
5054
5055
5056
5057
5058
5059
5060
5061
5062
5063
5064
5065
5066
5067
5068
5069
5070
5071
5072
5073
5074
5078
5079
5080
6204
6266
6267
6270
6271
6272
6273
6274
6316
6317
6318
6319
6320
6321
6322
6323
6324
6325
6326
6327
6332
6333
6334
6335
6336
6337
6338
6339
6340
6341
6342
6343
6344
6380
6381
6382
6395
6396
6397
6398
6399
6400
6401
6402
6403
6404
6405
6412
6413
6414
6415
6416
6417
6499
6500
6501
6533
6534
6535
6536
6537
6586
6661
6662
6663
6664
6665
6666
6888
6889
6890
6891
6892
6893
6894
6895
6896
6897
6898
6899
6900
6901
6902
6903
6904
6905
6906
6907
6908
6909
6910
6911
6912
6913
6914
6915
6916
6917
6918
6919
6920
6921
6922
6923
6924
6925
6926
6927
6928
6929
6930
6931
6932
6933
6934
6935
6936
6937
6938
6939
6940
6941
6942
6943
6944
6945
6946
6947
6948
6949
6950
6951
6952
6953
6954
6955
6956
6957
6958
6959
6960
6961
6962
6963
6964
6965
6966
6967
6968
6969
6970
6971
6972
6973
6974
6975
7013
7015
7016
7018
7019
7021
7022
7024
7025
7027
7028
7030
7031
7033
7034
7036
7037
7040
7041
7043
7044
7046
7047
7049
7050
7052
7053
7056
7057
7075
7076
7077
7095
7096
7100
7101
7115
7116
7117
7118
7122
7123
7127
7128
7132
7133
7137
7138
7145
7149
7150
7154
7155
7159
7160
7164
7165
7169
7170
7171
7172
7173
7174
7175
7176
7177
7178
7179
7180
7181
7182
7183
7184
7185
7186
7187
7188
7189
7190
7191
7192
7193
7194
7195
7196
7197
7198
7199
7200
7201
7202
7203
7204
7205
7206
7207
7208
7209
7210
7211
7212
)


1079
(
18
22
1141
1196
2089
2090
2091
2092
2093
2094
2095
2096
2097
2098
2099
2100
2101
2102
2103
2104
2105
2106
2107
2108
2109
2110
2111
2112
2113
2114
2115
2116
2117
2118
2119
2120
2121
2122
2123
2124
2125
2126
2127
2128
2129
2130
2131
2132
2133
2134
2135
2136
2137
2138
2139
2140
2141
2142
2143
2144
2145
2146
2147
2148
2149
2150
2151
2152
2153
2154
2155
2156
2157
2158
2159
2160
2161
2162
2163
2164
2165
2166
2167
2168
2169
2170
2171
2172
2173
2174
2175
2176
2177
2178
2179
2180
2181
2182
2183
2184
2185
2186
2187
2188
2189
2190
2191
2192
2193
2194
2195
2196
2197
2198
2199
2200
2201
2202
2203
2204
2205
2206
2207
2216
2316
2317
2318
2319
2341
2342
2344
3083
3085
3088
3089
3090
3091
3092
3093
3094
3095
3096
3097
3098
3099
3100
3101
3103
3105
3108
3109
3110
3111
3112
3113
3114
3115
3116
3117
3118
3119
3120
3121
3122
3123
3124
3125
3126
3127
3128
3129
3133
3136
3137
3144
3170
3171
3172
3173
3178
3180
3181
3210
3211
3212
3213
3214
3219
3220
3221
3222
3223
3224
3225
3226
3227
3278
3295
3307
3308
3309
3310
3311
3312
3313
3314
3315
3316
3317
3318
3319
3320
3321
3322
3325
3326
3329
3330
4028
4029
4030
4032
4040
4042
4050
4051
4052
4053
4054
4055
4056
4057
4058
4059
4060
4061
4062
4063
4064
4065
4066
4067
4068
4069
4071
4072
4074
4075
4076
4077
4078
4079
4080
4081
4082
4083
4084
4085
4086
4087
4088
4089
4090
4091
4092
4093
4094
4095
4096
4097
4098
4099
4100
4101
4108
4109
4111
4113
4114
4115
4117
4118
4131
4140
4141
4143
4144
4145
4182
4183
4184
4185
4186
4192
4193
4197
4201
4202
4207
4211
4212
4213
4214
4229
4230
4231
4232
4233
4235
4236
4242
4244
4245
4246
4247
4248
4249
4250
4251
4252
4270
4271
4272
4273
4274
4275
4277
4282
4283
4284
4285
4286
4287
4288
4289
4295
4300
4301
4302
4303
4304
4305
4306
4307
4325
4326
4327
4328
4329
4332
4333
4334
4335
4336
4337
4338
4339
4340
4341
4348
4349
4350
4351
4352
4353
4354
4355
4356
4357
4358
4359
4360
4362
4363
4381
4382
4384
4389
4390
4391
4392
4393
4394
4395
4396
4397
4398
4399
4400
4401
4402
4403
4404
4405
4406
4407
4408
4413
4414
4415
4416
4417
4418
4419
4420
4429
4430
4431
4432
4433
4434
4435
4436
4437
4438
4439
4440
4457
4460
4461
4516
4517
4518
4519
4520
4523
4524
4531
4532
4537
4539
4597
4598
4599
4600
4601
4602
4603
4604
4605
4606
4607
4608
4609
4610
4611
4612
4613
4614
4615
4616
4617
4618
4619
4620
4621
4622
4623
4624
4625
4626
4627
4628
4629
4630
4631
4632
4633
4634
4635
4636
4637
4638
4639
4640
4641
4642
4643
4644
4645
4646
4647
4648
4649
4650
4651
4652
4653
4654
4655
4656
4657
4658
4659
4660
4661
4662
4663
4664
4665
4666
4667
4668
4669
4670
4671
4672
4673
4674
4675
4676
4677
4678
4679
4680
4681
4682
4683
4684
4685
4686
4687
4688
4689
4690
4691
4692
4693
4694
4695
4696
4697
4698
4699
4700
4701
4702
4703
4704
4705
4706
4716
4799
4800
4801
4802
4803
4804
4805
4806
4807
4808
4809
4810
4811
4812
4813
4814
4815
4816
4817
4818
4819
4820
4821
4822
4823
4824
4825
4826
4827
4828
4829
4830
4831
4832
4833
4834
4835
4836
4837
4838
4839
4840
4841
4842
4843
4844
4845
4846
4847
4848
4849
4850
4851
4852
4853
4854
4855
4856
4857
4858
4859
4860
4861
4862
4863
4864
4865
4866
4867
4868
4869
4870
4871
4872
4873
4874
4875
4876
4877
4878
4879
4880
4881
4882
4883
4884
4885
4886
4887
4888
4889
4890
4891
4892
4893
4894
4895
4896
4897
4898
4899
4900
4901
4902
4903
4904
4905
4906
4907
4908
4909
4910
4911
4912
4913
4914
4915
4916
4917
4918
4919
4920
4921
4922
4923
4924
4925
4926
4927
4928
4929
4930
4931
4932
4933
4934
4935
4936
4937
4938
4939
4940
4941
4942
4943
4944
4945
4946
4947
4948
4949
4950
4951
4952
4953
4954
4955
4956
4957
4958
4959
4960
4961
4962
4963
4964
4965
4966
4967
4968
4969
4970
4971
4972
4973
4974
4975
4976
4977
4978
4979
4980
4981
4982
4983
4984
4985
4986
4987
4988
4989
4990
4991
4992
4993
4994
4995
4996
4997
4998
4999
5000
5001
5002
5003
5004
5005
5006
5007
5008
5009
5010
5011
5012
5013
5014
5015
5016
5017
5018
5019
5020
5021
5022
5023
5024
5025
5026
5027
5028
5029
5030
5031
5032
5033
5034
5035
5036
5037
5038
5039
5040
5041
5042
5043
5044
5045
5046
5047
5048
5049
5050
5051
5052
5053
5054
5055
5056
5057
5058
5059
5060
5061
5062
5063
5064
5065
5066
5067
5068
5069
5070
5071
5072
5073
5074
5076
5079
5080
5086
6204
6266
6267
6270
6271
6272
6273
6274
6316
6317
6318
6319
6320
6321
6322
6323
6324
6325
6326
6327
6332
6333
6334
6335
6336
6337
6338
6339
6340
6341
6342
6343
6344
6380
6381
6382
6395
6396
6397
6398
6399
6400
6401
6402
6403
6404
6405
6412
6413
6414
6415
6416
6417
6499
6500
6501
6533
6534
6535
6536
6537
6586
6661
6662
6663
6664
6665
6666
6888
6889
6890
6891
6892
6893
6894
6895
6896
6897
6898
6899
6900
6901
6902
6903
6904
6905
6906
6907
6908
6909
6910
6911
6912
6913
6914
6915
6916
6917
6918
6919
6920
6921
6922
6923
6924
6925
6926
6927
6928
6929
6930
6931
6932
6933
6934
6935
6936
6937
6938
6939
6940
6941
6942
6943
6944
6945
6946
6947
6948
6949
6950
6951
6952
6953
6954
6955
6956
6957
6958
6959
6960
6961
6962
6963
6964
6965
6966
6967
6968
6969
6970
6971
6972
6973
6974
6975
7013
7015
7016
7018
7019
7021
7022
7024
7025
7027
7028
7030
7031
7033
7034
7036
7037
7040
7041
7043
7044
7046
7047
7049
7050
7052
7053
7056
7057
7075
7076
7077
7095
7096
7100
7101
7115
7116
7117
7118
7122
7123
7127
7128
7132
7133
7137
7138
7145
7149
7150
7154
7155
7159
7160
7164
7165
7169
7170
7171
7172
7173
7174
7175
7176
7177
7178
7179
7180
7181
7182
7183
7184
7185
7186
7187
7188
7189
7190
7191
7192
7193
7194
7195
7196
7197
7198
7199
7200
7201
7202
7203
7204
7205
7206
7207
7208
7209
7210
7211
7212
)


581
(
22
1119
1122
1123
1124
1125
1127
1129
1173
1174
1176
1178
1184
1186
1196
1198
1214
1809
2087
2088
2094
2096
2097
2114
2123
2124
2125
2217
2222
2316
2317
2318
2319
2341
2342
2344
3091
3093
3097
3099
3112
3113
3114
3115
3116
3117
3118
3119
3120
3121
3122
3123
3124
3125
3142
3158
3164
3165
3218
3219
3220
3221
3222
3223
3225
3226
3227
3278
3315
3380
3388
3389
3390
3394
3450
3452
3453
3454
4028
4029
4030
4031
4032
4034
4035
4036
4037
4038
4039
4040
4041
4042
4043
4044
4045
4046
4047
4048
4049
4050
4051
4052
4053
4054
4055
4056
4057
4058
4059
4060
4061
4062
4063
4064
4065
4066
4067
4068
4069
4070
4071
4072
4073
4074
4075
4076
4077
4078
4079
4080
4081
4082
4083
4084
4085
4086
4087
4088
4089
4090
4091
4092
4093
4094
4095
4096
4097
4098
4099
4100
4101
4103
4104
4107
4108
4109
4111
4113
4114
4115
4116
4117
4118
4119
4130
4131
4140
4141
4142
4143
4156
4182
4183
4184
4185
4186
4192
4193
4197
4198
4201
4202
4207
4208
4209
4210
4211
4212
4213
4214
4215
4216
4229
4230
4231
4232
4233
4234
4235
4236
4242
4244
4245
4246
4247
4248
4249
4250
4251
4252
4257
4258
4259
4260
4270
4271
4272
4273
4274
4275
4276
4277
4282
4283
4284
4285
4286
4287
4288
4289
4292
4293
4294
4295
4296
4299
4300
4301
4302
4303
4304
4305
4306
4307
4333
4334
4335
4336
4337
4338
4339
4340
4341
4345
4346
4347
4348
4349
4350
4351
4352
4357
4358
4359
4360
4361
4362
4363
4364
4365
4367
4368
4369
4370
4371
4372
4381
4382
4383
4384
4385
4386
4387
4388
4389
4390
4391
4392
4393
4394
4395
4396
4397
4398
4399
4400
4401
4402
4403
4404
4405
4406
4407
4408
4413
4414
4415
4416
4417
4418
4419
4420
4421
4422
4423
4424
4426
4427
4429
4430
4431
4432
4433
4434
4435
4436
4457
4458
4460
4461
4515
4516
4523
4531
4532
4535
4536
4537
4596
4597
4598
4599
4600
4601
4602
4605
4613
4625
4647
4681
4682
4683
4686
4687
4713
4715
4716
4717
4720
4721
4799
4800
4801
4802
4803
4804
4805
4807
4808
4809
4810
4811
4812
4813
4816
4817
4818
4819
4820
4821
4822
4823
4825
4827
4828
4829
4833
4834
4835
4836
4837
4838
4839
4840
4841
4842
4843
4844
4845
4846
4847
4848
4851
4852
4853
4860
4861
4862
4863
4864
4865
4866
4867
4868
4869
4870
4871
4872
4873
4874
4875
4876
4877
4882
4883
4884
4885
4892
4893
4894
4895
4896
4897
4898
4899
4900
4901
4902
4903
4904
4905
4906
4907
4908
4910
4911
4914
4915
4916
4917
4924
4925
4926
4927
4928
4929
4930
4933
4935
4936
4937
4938
4944
4945
4946
4947
4948
4949
4950
4952
4953
4954
4956
4958
4959
4960
4961
4962
4963
4965
4970
4971
4973
4974
4975
4979
4980
4981
4982
4983
4984
4985
4987
4990
5007
5008
5009
5015
5016
5017
5018
5019
5020
5021
5022
5023
5024
5025
5026
5033
5034
5041
5043
5047
5048
5050
5051
5054
5055
5060
5061
5062
5063
5064
5065
5066
5067
5069
5070
5071
5072
5073
5076
5078
5088
5089
5090
6203
6316
6317
6318
6321
6322
6395
6396
6397
6893
6894
6914
6915
6916
6917
6918
6919
6920
6921
6922
6941
6942
6943
6944
6945
6946
7024
7025
7036
7037
7115
7116
7117
7118
7137
7138
7178
7179
7180
7181
7182
7183
7190
7191
)


1064
(
22
1141
2089
2090
2091
2092
2093
2094
2095
2096
2097
2098
2099
2100
2101
2102
2103
2104
2105
2106
2107
2108
2109
2110
2111
2112
2113
2114
2115
2116
2117
2118
2119
2120
2121
2122
2123
2124
2125
2126
2127
2128
2129
2130
2131
2132
2133
2134
2135
2136
2137
2138
2139
2140
2141
2142
2143
2144
2145
2146
2147
2148
2149
2150
2151
2152
2153
2154
2155
2156
2157
2158
2159
2160
2161
2162
2163
2164
2165
2166
2167
2168
2169
2170
2171
2172
2173
2174
2175
2176
2177
2178
2179
2180
2181
2182
2183
2184
2185
2186
2187
2188
2189
2190
2191
2192
2193
2194
2195
2196
2197
2198
2199
2200
2201
2202
2203
2204
2205
2206
2207
2316
2317
2318
2319
2341
2342
2344
3082
3083
3085
3088
3089
3090
3091
3092
3093
3094
3095
3096
3097
3098
3099
3100
3101
3102
3103
3105
3106
3108
3109
3110
3111
3112
3113
3114
3115
3116
3117
3118
3119
3120
3121
3122
3123
3124
3125
3126
3127
3128
3129
3131
3133
3135
3136
3137
3144
3157
3170
3171
3172
3173
3176
3177
3178
3180
3181
3210
3211
3212
3213
3214
3215
3217
3219
3220
3221
3222
3223
3224
3225
3226
3227
3278
3295
3296
3298
3307
3308
3309
3310
3311
3312
3313
3314
3315
3316
3317
3318
3319
3320
3321
3322
3325
3326
3329
3330
3358
3362
3389
3390
3393
3449
3450
4028
4030
4040
4041
4042
4044
4046
4048
4051
4053
4054
4055
4056
4057
4058
4059
4060
4061
4062
4063
4064
4065
4066
4067
4068
4069
4070
4071
4072
4073
4074
4075
4076
4077
4078
4079
4080
4081
4082
4083
4084
4085
4086
4087
4088
4089
4090
4091
4092
4093
4094
4095
4096
4097
4098
4099
4100
4101
4108
4109
4111
4113
4114
4115
4117
4118
4130
4131
4140
4141
4142
4143
4182
4184
4186
4201
4202
4209
4211
4212
4213
4214
4229
4230
4231
4235
4245
4246
4247
4248
4249
4250
4251
4252
4259
4270
4271
4272
4273
4274
4275
4276
4277
4282
4283
4284
4285
4286
4287
4288
4289
4292
4293
4294
4295
4300
4301
4302
4303
4304
4305
4306
4307
4326
4328
4333
4334
4335
4336
4337
4338
4339
4340
4341
4345
4347
4348
4349
4350
4351
4352
4355
4356
4357
4358
4359
4360
4361
4362
4363
4364
4381
4382
4383
4384
4385
4386
4387
4389
4390
4391
4392
4393
4394
4395
4396
4397
4398
4399
4400
4401
4402
4403
4404
4405
4406
4407
4408
4413
4414
4415
4416
4417
4418
4419
4420
4421
4422
4424
4429
4430
4431
4432
4433
4434
4435
4436
4457
4460
4461
4516
4517
4518
4519
4520
4523
4531
4532
4537
4597
4598
4599
4600
4601
4602
4603
4604
4605
4606
4607
4608
4609
4610
4611
4612
4613
4614
4615
4616
4617
4618
4619
4620
4621
4622
4623
4624
4625
4626
4627
4628
4629
4630
4631
4632
4633
4634
4635
4636
4637
4638
4639
4640
4641
4642
4643
4644
4645
4646
4647
4648
4649
4650
4651
4652
4653
4654
4655
4656
4657
4658
4659
4660
4661
4662
4663
4664
4665
4666
4667
4668
4669
4670
4671
4672
4673
4674
4675
4676
4677
4678
4679
4680
4681
4682
4683
4684
4685
4686
4687
4688
4689
4690
4691
4692
4693
4694
4695
4696
4697
4698
4699
4700
4701
4702
4703
4704
4705
4706
4716
4717
4720
4721
4799
4800
4801
4802
4803
4804
4805
4806
4807
4808
4809
4810
4811
4812
4813
4814
4815
4816
4817
4818
4819
4820
4821
4822
4823
4824
4825
4826
4827
4828
4829
4830
4831
4832
4833
4834
4835
4836
4837
4838
4839
4840
4841
4842
4843
4844
4845
4846
4847
4848
4849
4850
4851
4852
4853
4854
4855
4856
4857
4858
4859
4860
4861
4862
4863
4864
4865
4866
4867
4868
4869
4870
4871
4872
4873
4874
4875
4876
4877
4878
4879
4880
4881
4882
4883
4884
4885
4886
4887
4888
4889
4890
4891
4892
4893
4894
4895
4896
4897
4898
4899
4900
4901
4902
4903
4904
4905
4906
4907
4908
4909
4910
4911
4912
4913
4914
4915
4916
4917
4918
4919
4920
4921
4922
4923
4924
4925
4926
4927
4928
4929
4930
4931
4932
4933
4934
4935
4936
4937
4938
4939
4940
4941
4942
4943
4944
4945
4946
4947
4948
4949
4950
4951
4952
4953
4954
4955
4956
4957
4958
4959
4960
4961
4962
4963
4964
4965
4966
4967
4968
4969
4970
4971
4972
4973
4974
4975
4976
4977
4978
4979
4980
4981
4982
4983
4984
4985
4986
4987
4988
4989
4990
4991
4992
4993
4994
4995
4996
4997
4998
4999
5000
5001
5002
5003
5004
5005
5006
5007
5008
5009
5010
5011
5012
5013
5014
5015
5016
5017
5018
5019
5020
5021
5022
5023
5024
5025
5026
5027
5028
5029
5030
5031
5032
5033
5034
5035
5036
5037
5038
5039
5040
5041
5042
5043
5044
5045
5046
5047
5048
5049
5050
5051
5052
5053
5054
5055
5056
5057
5058
5059
5060
5061
5062
5063
5064
5065
5066
5067
5068
5069
5070
5071
5072
5073
5074
5076
5078
5079
5080
5086
5088
5091
6266
6267
6270
6272
6274
6316
6317
6318
6319
6320
6321
6322
6323
6324
6325
6326
6327
6333
6334
6335
6338
6340
6341
6342
6343
6344
6380
6381
6382
6395
6396
6397
6398
6399
6400
6401
6402
6403
6404
6405
6412
6413
6414
6416
6417
6499
6500
6501
6533
6534
6535
6536
6537
6586
6661
6662
6663
6664
6665
6666
6888
6889
6890
6891
6892
6893
6894
6895
6896
6897
6898
6900
6902
6903
6904
6905
6906
6907
6908
6909
6910
6911
6912
6913
6914
6915
6916
6917
6918
6919
6920
6921
6922
6923
6924
6925
6926
6927
6928
6929
6930
6931
6932
6933
6934
6935
6936
6937
6938
6939
6940
6941
6942
6943
6944
6945
6946
6947
6948
6949
6950
6951
6958
6959
6960
6962
6963
6967
6968
6969
6970
6971
6972
6973
6974
6975
7013
7015
7016
7018
7019
7021
7022
7024
7025
7027
7028
7030
7031
7033
7034
7036
7037
7040
7041
7046
7047
7052
7053
7056
7057
7075
7076
7077
7095
7096
7100
7101
7115
7116
7117
7118
7122
7123
7127
7128
7132
7133
7137
7138
7145
7155
7159
7160
7164
7165
7169
7170
7171
7172
7173
7174
7175
7176
7177
7178
7179
7180
7181
7182
7183
7184
7185
7186
7187
7188
7189
7190
7191
7192
7193
7194
7195
7196
7197
7198
7199
7200
7207
7208
7209
7210
7211
7212
)


975
(
20
1111
1113
1115
1117
1119
1121
1127
1129
1132
1133
1134
1135
1138
1139
1140
1141
1142
1155
1157
1163
1165
1186
1196
2089
2090
2091
2092
2093
2094
2095
2096
2097
2098
2099
2100
2101
2102
2103
2104
2105
2106
2107
2108
2109
2110
2111
2112
2113
2114
2115
2116
2117
2118
2119
2120
2121
2122
2123
2124
2125
2126
2127
2128
2129
2130
2131
2132
2133
2134
2135
2136
2137
2138
2139
2140
2141
2142
2143
2144
2145
2146
2147
2148
2149
2150
2151
2152
2153
2154
2155
2156
2157
2158
2159
2160
2161
2162
2163
2164
2165
2166
2167
2168
2169
2170
2171
2172
2173
2174
2175
2176
2177
2178
2179
2180
2181
2182
2183
2184
2185
2186
2187
2188
2189
2190
2191
2192
2193
2194
2195
2196
2197
2198
2199
2200
2201
2202
2203
2204
2205
2206
2207
2216
3082
3083
3085
3103
3449
3450
3864
4028
4034
4036
4037
4039
4040
4041
4042
4043
4044
4045
4046
4048
4054
4055
4056
4057
4058
4059
4060
4061
4062
4063
4064
4065
4066
4067
4068
4069
4070
4071
4072
4073
4074
4075
4076
4077
4078
4079
4080
4081
4082
4083
4084
4085
4086
4087
4088
4089
4091
4093
4095
4099
4100
4101
4107
4108
4109
4111
4112
4115
4116
4117
4118
4119
4130
4131
4141
4142
4182
4202
4209
4210
4211
4212
4213
4214
4215
4216
4258
4259
4260
4270
4271
4272
4273
4274
4275
4276
4277
4282
4283
4284
4285
4286
4290
4291
4292
4293
4294
4295
4296
4297
4298
4299
4301
4302
4303
4344
4345
4346
4347
4348
4352
4361
4362
4363
4364
4369
4370
4372
4381
4382
4383
4384
4385
4386
4387
4388
4389
4390
4391
4392
4393
4394
4395
4396
4401
4402
4403
4404
4405
4406
4407
4408
4413
4414
4415
4416
4418
4419
4420
4421
4422
4423
4424
4425
4426
4427
4428
4457
4458
4460
4461
4516
4517
4518
4519
4520
4523
4524
4532
4596
4597
4598
4599
4600
4601
4602
4603
4604
4605
4606
4607
4608
4609
4610
4611
4612
4613
4614
4615
4616
4617
4618
4619
4620
4621
4622
4623
4624
4625
4626
4627
4628
4629
4630
4631
4632
4633
4634
4635
4636
4637
4638
4639
4640
4641
4642
4643
4644
4645
4646
4647
4648
4649
4650
4651
4652
4653
4654
4655
4656
4657
4658
4659
4660
4661
4662
4663
4664
4665
4666
4667
4668
4669
4670
4671
4672
4673
4674
4675
4676
4677
4678
4679
4680
4681
4682
4683
4684
4685
4686
4687
4688
4689
4690
4691
4692
4693
4694
4695
4696
4697
4698
4699
4700
4701
4702
4703
4704
4705
4706
4716
4717
4720
4721
4800
4801
4802
4803
4804
4805
4806
4807
4808
4809
4810
4811
4812
4813
4814
4815
4816
4817
4818
4819
4820
4821
4822
4823
4824
4825
4826
4827
4828
4829
4830
4831
4832
4833
4834
4835
4836
4837
4838
4839
4840
4841
4842
4843
4844
4845
4846
4847
4848
4849
4850
4851
4852
4853
4854
4855
4856
4857
4858
4859
4860
4861
4862
4863
4864
4865
4866
4867
4868
4869
4870
4871
4872
4873
4874
4875
4876
4877
4878
4879
4880
4881
4882
4883
4884
4885
4886
4887
4888
4889
4890
4891
4892
4893
4894
4895
4896
4897
4898
4899
4900
4901
4902
4903
4904
4905
4906
4907
4908
4909
4910
4911
4912
4913
4914
4915
4916
4917
4918
4919
4920
4921
4922
4923
4924
4925
4926
4927
4928
4929
4930
4931
4932
4933
4934
4935
4936
4937
4938
4939
4940
4941
4942
4943
4944
4945
4946
4947
4948
4949
4950
4951
4952
4953
4954
4955
4956
4957
4958
4959
4960
4961
4962
4963
4964
4965
4966
4967
4968
4969
4970
4971
4972
4973
4974
4975
4976
4977
4978
4979
4980
4981
4982
4983
4984
4985
4986
4987
4988
4989
4990
4991
4992
4993
4994
4995
4996
4997
4998
4999
5000
5001
5002
5003
5004
5005
5006
5007
5008
5009
5010
5011
5012
5013
5014
5015
5016
5017
5018
5019
5020
5021
5022
5023
5024
5025
5026
5027
5028
5029
5030
5031
5032
5033
5034
5035
5036
5037
5038
5039
5040
5041
5042
5043
5044
5045
5046
5047
5048
5049
5050
5051
5052
5053
5054
5055
5056
5057
5058
5059
5060
5061
5062
5063
5064
5065
5066
5067
5068
5069
5070
5071
5072
5073
5074
5078
5079
5080
5083
5087
5088
6266
6267
6270
6271
6272
6273
6274
6316
6317
6318
6319
6320
6321
6322
6323
6324
6325
6326
6327
6332
6333
6334
6335
6336
6337
6338
6339
6340
6341
6342
6343
6344
6380
6381
6382
6395
6396
6397
6398
6399
6400
6401
6402
6403
6404
6405
6412
6413
6414
6415
6416
6417
6499
6500
6501
6533
6534
6535
6536
6537
6586
6661
6662
6663
6664
6665
6666
6888
6889
6890
6891
6892
6893
6894
6895
6896
6897
6898
6899
6900
6901
6902
6903
6904
6905
6906
6907
6908
6909
6910
6911
6912
6913
6914
6915
6916
6917
6918
6919
6920
6921
6922
6923
6924
6925
6926
6927
6928
6929
6930
6931
6932
6933
6934
6935
6936
6937
6938
6939
6940
6941
6942
6943
6944
6945