/*--------------------------------*- C++ -*----------------------------------*\
  =========                 |
  \\      /  F ield         | OpenFOAM: The Open Source CFD Toolbox
   \\    /   O peration     | Website:  https://openfoam.org
    \\  /    A nd           | Version:  8
     \\/     M anipulation  |
\*---------------------------------------------------------------------------*/
/*   Windows 32 and 64 bit porting by blueCAPE: http://www.bluecape.com.pt   *\
|  Based on Windows porting (2.0.x v4) by Symscape: http://www.symscape.com   |
\*---------------------------------------------------------------------------*/
FoamFile
{
    version     2.0;
    format      ascii;
    class       scalarListList;
    location    "constant/vegetation";
    object      solarLoadFineFaces;
}
// * * * * * * * * * * * * * * * * * * * * * * * * * * * * * * * * * * * * * //


5
(

1380
(
717.08284
93.758907
717.08284
717.08284
717.08284
93.758907
717.08284
717.08284
717.08284
0
0
0
0
717.08284
178.77134
0
0
0
191.51629
0
717.08284
717.08284
0
710.22042
710.22042
0
0
0
0
0
675.72945
0
0
0
0
717.08284
717.08284
717.08284
0
0
0
0
699.72496
0
0
0
0
675.72945
0
0
24.879535
53.260085
717.08284
717.08284
717.08284
99.092977
218.75449
717.08284
69.085949
22.247363
96.361079
24.879535
69.085949
126.09887
53.260085
96.361079
103.56287
717.08284
99.092977
717.08284
717.08284
717.08284
717.08284
218.75449
717.08284
717.08284
93.758907
717.08284
65.192118
24.816759
87.08683
99.092977
717.08284
187.28224
348.86694
717.08284
717.08284
717.08284
717.08284
717.08284
717.08284
717.08284
717.08284
178.77134
436.54678
717.08284
717.08284
127.66156
43.074905
717.08284
717.08284
717.08284
717.08284
717.08284
27.221801
50.659105
90.991307
32.810073
37.320414
27.221801
27.221801
87.08683
27.221801
81.589189
99.092977
717.08284
717.08284
96.361079
81.589189
717.08284
717.08284
717.08284
717.08284
81.589189
717.08284
717.08284
405.30254
218.75449
717.08284
717.08284
90.991307
50.659105
298.31302
717.08284
717.08284
717.08284
24.879535
25.820227
70.158991
70.158991
53.260085
717.08284
22.247363
22.247363
22.247363
96.361079
37.320414
32.810073
24.879535
24.879535
69.085949
44.258762
44.54478
126.09887
126.09887
126.09887
53.260085
103.56287
103.56287
103.56287
103.56287
65.192118
32.810073
44.258762
87.08683
43.798189
43.074905
43.074905
43.074905
43.798189
717.08284
717.08284
717.08284
70.158991
70.158991
24.921824
44.54478
44.54478
24.921824
24.921824
24.921824
24.879535
87.08683
44.258762
69.085949
44.258762
44.258762
44.54478
44.258762
27.221801
59.495488
59.495488
43.798189
59.495488
99.092977
59.495488
43.798189
163.10805
103.56287
81.589189
717.08284
717.08284
717.08284
163.10805
163.10805
163.10805
717.08284
717.08284
717.08284
187.28224
187.28224
187.28224
717.08284
717.08284
717.08284
717.08284
152.85818
717.08284
717.08284
717.08284
717.08284
717.08284
717.08284
93.758907
43.074905
717.08284
717.08284
717.08284
717.08284
717.08284
717.08284
0
0
0
0
0
0
0
0
0
0
0
0
0
0
0
0
0
0
0
0
0
191.51629
717.08284
717.08284
0
0
0
0
0
0
0
0
0
0
0
0
0
0
0
0
0
0
0
717.08284
717.08284
0
0
0
0
0
0
0
0
0
0
0
0
63.43606
63.43606
63.43606
717.08284
717.08284
327.84918
32.810073
65.192118
65.192118
25.820227
25.820227
24.816759
717.08284
127.66156
211.32425
211.32425
211.32425
127.66156
50.659105
90.991307
50.659105
63.43606
90.991307
90.991307
37.320414
37.320414
24.816759
37.320414
37.320414
37.320414
717.08284
717.08284
717.08284
717.08284
717.08284
717.08284
717.08284
717.08284
717.08284
717.08284
717.08284
717.08284
717.08284
717.08284
717.08284
717.08284
717.08284
717.08284
127.66156
65.192118
65.192118
24.816759
25.820227
32.810073
717.08284
717.08284
717.08284
211.32425
717.08284
717.08284
717.08284
152.85818
717.08284
717.08284
717.08284
0
0
0
0
0
0
0
0
0
0
0
0
0
0
0
0
0
0
0
0
0
0
0
0
0
0
0
0
0
0
0
0
0
0
0
0
0
0
0
0
0
0
0
0
0
0
0
0
0
0
0
0
0
0
0
0
0
0
0
0
0
0
0
0
0
0
0
0
0
0
0
0
0
0
0
0
0
0
0
0
0
0
0
0
0
0
0
0
0
0
0
0
0
0
0
0
0
0
0
0
0
0
0
0
0
0
0
0
0
0
0
0
0
0
0
0
0
0
0
0
0
0
0
0
0
0
0
0
0
0
0
0
0
0
0
0
0
0
0
0
0
0
0
0
0
0
0
0
0
0
0
0
0
0
0
0
0
0
0
0
0
0
0
0
0
0
0
0
0
0
0
0
0
0
0
0
0
0
0
0
0
0
0
0
0
0
0
0
0
0
0
0
0
0
0
0
0
0
0
0
0
0
0
0
0
0
0
0
0
0
0
0
0
0
0
0
0
0
0
0
0
0
0
0
0
0
0
0
0
0
0
0
0
0
0
0
0
0
0
0
0
0
0
0
0
0
0
0
0
0
0
0
0
0
0
0
0
0
0
0
0
0
0
0
0
0
0
0
0
0
0
0
0
0
0
544.53418
527.99721
0
436.37594
0
0
0
0
0
20.664953
0
0
420.90793
74.405642
426.38765
0
589.07082
258.16173
0
0
0
0
0
142.41871
286.90175
0
0
0
37.870575
44.767115
82.446415
0
0
41.571528
78.18283
0
78.816721
1.9225657
62.532356
0
0
0
0
0
0
0
0
0
0
323.53992
162.19639
296.66991
388.24512
450.03232
0
235.2035
108.67931
275.83228
0
0
0
0
0
596.19974
709.93277
713.97459
681.37157
719.77672
674.45843
625.2012
752.87145
0
0
0
0
0
0
148.65506
117.8424
0
4.8957255
121.17469
0
0
0
86.706077
121.17648
0
15.661245
0
493.35195
493.3612
0
0
0
0
0
198.13732
121.00612
108.43108
0
0
0
0
0
0
0
0
0
0
0
0
0
0
549.6003
200.70311
268.03701
209.89206
120.19567
264.76089
63.756864
196.42773
357.30116
395.52729
63.087817
23.103856
0
0
0
450.22392
443.48917
0
0
0
0
0
541.04744
511.1176
538.3367
490.27855
137.5103
435.03752
485.43241
0
0
0
0
394.06293
296.98007
430.01511
169.38253
155.28479
262.97919
287.90216
319.84489
123.55503
267.35021
188.31328
0
64.948588
117.84635
70.280738
0
40.616151
56.121363
0
117.84688
152.528
118.14325
98.72306
89.906279
75.955763
0
56.862186
75.539918
58.64065
52.244029
0
0
0
0
0
51.756395
89.811705
28.393203
10.820527
0
0
2.343734
28.39594
0.31440046
0
0
0
0
7.8819197
30.407126
4.4415045
60.524138
0
0
0
0
0
0
0
0
0
0
0
0
0
0
0
0
0
0
0
0
0
0
0
0
0
0
0
0
0
0
0
0
459.53368
477.2087
424.34836
483.28691
170.56461
162.14804
173.20326
305.64271
302.15293
305.16864
307.13628
177.8248
430.17844
416.59917
427.22445
421.01462
413.84498
444.96819
440.40292
300.54886
142.04343
278.80421
0
0
0
0
0
177.83516
159.31184
176.72848
158.59534
377.8456
236.72469
376.3925
374.74922
103.60347
252.22597
176.04999
149.27165
314.79889
362.34864
252.21167
156.80762
21.58174
0
1.9184716
0
0
0
0
0
33.720296
0
0
12.608819
4.8493733
2.1156953
0
0
0
216.2901
586.46723
588.78784
674.30337
563.30741
578.89821
573.10569
697.8223
698.85182
545.23244
567.75192
660.88175
678.03896
584.09684
726.2488
689.11295
741.62831
735.70941
653.39987
726.44383
751.39588
743.82311
700.17516
634.03483
718.93545
748.63284
0
0
19.976094
0
0
0
0
29.41835
0
0
0
2.0429284
0
0
0
577.43991
0
176.85012
198.54507
0
0
0
0
372.52721
159.80922
572.97426
561.12885
0
0
0
0
0
0
0
0
310.27567
19.084488
308.15299
0
0
0
0
0
0
253.71265
197.19166
0
0
0
0
0
0
60.64889
52.813401
40.630808
39.228502
0
0
427.473
0
0
0
27.974173
42.96301
305.9303
0
0
0
86.256594
0
0
0
0
0
299.01939
161.51876
126.54441
304.31862
258.32719
303.91356
115.53543
276.15319
157.56324
405.09617
525.60293
584.48302
0
27.969088
101.9848
87.246359
233.5893
152.69606
0
0
0
0
0
0
87.240615
136.02393
157.56347
0
40.616796
0
0
0
0
0
0
0
0
0
0
0
245.54575
183.49666
48.560607
51.74618
117.43582
117.85115
106.62146
44.352723
44.346796
107.64753
0
0
0
0
0
0
0
0
0
0
0
71.004465
18.970795
106.28207
0
0
77.260095
0
0
0
0
118.14081
98.598596
0
0
0
0
0
0
0
0
0
89.223551
98.600594
250.36699
111.48678
358.90203
372.63356
333.3405
0
0
0
58.458496
69.940816
127.12923
0
440.03889
0
0
0
674.9917
569.75304
650.38788
621.88021
604.62842
511.41462
594.68642
211.33132
156.12107
47.779561
0
435.56925
298.49073
314.62805
437.19471
456.93825
0
0
367.31259
498.21979
484.28268
0
0
469.16396
0
139.40524
0
0
0
0
0
0
0
194.80135
115.76157
17.241888
13.361399
42.868197
10.323835
18.310226
0
375.95995
246.06508
245.02531
144.46171
262.66973
244.94074
244.93318
284.96726
363.29715
320.78966
267.34823
333.32893
215.25506
338.3265
188.93632
0
0
0
117.84733
23.098818
44.348376
44.362017
47.50554
178.90307
18.580601
41.987036
171.41789
186.95403
205.62783
203.78819
46.725415
52.987516
41.616461
65.016207
94.298723
64.873621
241.25937
54.84065
0
0
0
0
0
0
0
181.41353
44.036493
195.65953
0
0
0
0
0
0
0
0
0
0
0
0
0
0
0
0
0
0
0
0
0
0
0
0
0
0
0
0
0
0
0
0
0
0
451.24491
432.06789
309.37007
308.06598
160.46943
167.92457
288.94718
442.76783
278.81718
403.67076
431.95838
117.56121
288.33351
303.90749
137.49843
132.4723
278.81576
272.13607
179.45488
138.32592
0
0
0
0
27.673289
87.257874
40.057159
13.601566
27.970326
233.58552
233.57846
101.99332
94.029892
101.98579
26.063549
100.56293
100.25117
233.58968
30.0516
17.711793
317.8519
319.67442
371.88764
270.77613
342.43906
267.43141
172.0208
37.210865
37.690974
0
0
0
0
0
0
0
0
0
132.47097
18.373031
0
28.578743
0
27.356225
141.16811
0
0
0
0
0
0
0
239.71549
192.03751
201.86688
216.27838
660.95175
694.23837
587.62164
581.25892
695.0491
708.26851
526.00586
518.17989
587.92881
423.66767
539.93637
597.22011
599.65286
645.58168
625.52234
662.55687
0
10.58155
0
0
0
0.95924236
0
0
0
0
0
0
0
30.339447
87.232855
65.682735
25.646182
113.72871
27.974653
106.91452
0
0
98.864934
55.962353
64.035662
81.819718
0
0
0
496.31659
590.37853
473.73936
448.86131
0
0
0
0
0
0
0
390.06238
423.42173
650.06704
0
0
0
)


1380
(
0
0
0
259.80671
0
0
0
585.76158
0
0
0
0
0
0
0
0
0
0
0
0
585.76158
335.1905
0
0
0
0
0
0
0
0
0
0
0
0
0
0
0
0
0
0
0
0
0
0
0
0
0
0
0
0
28.548553
48.6037
147.38151
0
0
0
585.76158
585.76158
243.15213
29.732215
280.38057
28.548553
243.15213
0
48.6037
585.76158
114.96055
0
0
0
0
0
0
585.76158
0
0
0
0
40.111916
25.309126
585.76158
0
585.76158
108.4104
585.76158
0
0
0
0
0
0
0
0
0
0
0
0
52.258547
0
0
0
585.76158
585.76158
585.76158
51.821512
0
0
40.176597
75.179806
51.821512
51.821512
585.76158
51.821512
87.267311
0
585.76158
585.76158
585.76158
87.267311
585.76158
585.76158
0
585.76158
87.267311
0
0
0
585.76158
386.72646
585.76158
0
0
0
0
585.76158
0
28.548553
22.785577
45.197065
45.197065
48.6037
147.38151
29.732215
29.732215
29.732215
585.76158
75.179806
40.176597
28.548553
28.548553
585.76158
106.65383
0
0
0
0
48.6037
114.96055
114.96055
114.96055
114.96055
40.111916
40.176597
106.65383
189.17535
0
0
0
0
0
585.76158
585.76158
87.743629
45.197065
45.197065
39.87868
0
0
39.87868
39.87868
39.87868
28.548553
189.17535
106.65383
585.76158
106.65383
106.65383
0
106.65383
51.821512
0
0
0
0
0
0
0
0
114.96055
87.267311
585.76158
585.76158
585.76158
0
0
0
147.38151
585.76158
585.76158
108.4104
108.4104
108.4104
207.65546
585.76158
585.76158
34.857529
34.857529
0
0
0
0
0
0
0
0
585.76158
585.76158
585.76158
0
0
0
0
0
0
0
0
0
0
0
0
0
0
0
0
0
0
0
0
0
0
0
0
0
0
0
0
0
0
0
0
0
0
0
0
0
0
0
0
0
0
0
0
0
0
0
0
0
0
0
0
0
0
0
0
0
0
0
0
0
0
0
0
0
0
40.176597
40.111916
40.111916
22.785577
22.785577
25.309126
585.76158
52.258547
87.743629
87.743629
87.743629
52.258547
0
0
0
0
0
0
75.179806
75.179806
25.309126
75.179806
75.179806
75.179806
585.76158
585.76158
585.76158
585.76158
585.76158
585.76158
263.26017
585.76158
585.76158
0
0
0
585.76158
0
0
0
0
585.76158
52.258547
40.111916
40.111916
25.309126
22.785577
40.176597
585.76158
585.76158
211.25181
87.743629
87.743629
87.743629
34.857529
34.857529
34.857529
585.76158
585.76158
0
0
0
0
0
0
0
0
0
0
0
0
0
0
0
0
0
0
0
0
0
0
0
0
0
0
0
0
0
0
0
0
0
0
0
0
0
0
0
0
0
0
0
0
0
0
0
0
0
0
0
0
0
0
0
0
0
0
0
0
0
0
0
0
0
0
0
0
0
0
0
0
0
0
0
0
0
0
0
0
0
0
0
0
0
0
0
0
0
0
0
0
0
0
0
0
0
0
0
0
0
0
0
0
0
0
0
0
0
0
0
0
0
0
0
0
0
0
0
0
0
0
0
0
0
0
0
0
0
0
0
0
0
0
0
0
0
0
0
0
0
0
0
0
0
0
0
0
0
0
0
0
0
0
0
0
0
0
0
0
0
0
0
0
0
0
0
0
0
0
0
0
0
0
0
0
0
0
0
0
0
0
0
0
0
0
0
0
0
0
0
0
0
0
0
0
0
0
0
0
0
0
0
0
0
0
0
0
0
0
0
0
0
0
0
0
0
0
0
0
0
0
0
0
0
0
0
0
0
0
0
0
0
0
0
0
0
0
0
0
0
0
0
0
0
0
0
0
0
0
0
0
0
0
0
0
0
0
0
0
0
0
0
0
0
0
0
0
0
0
0
0
0
0
0
558.67646
550.32216
0
482.32569
0
0
0
0
0
0
0
0
476.4782
49.150489
365.43924
0
543.25377
361.11935
0
0
0
0
0
219.80594
337.7313
0
0
0
48.789484
76.610894
58.037065
0
0
42.334171
52.930969
0
53.283146
32.520415
79.065832
0
0
0
0
0
0
0
0
0
0
354.76967
209.1661
318.33713
256.20053
379.077
0
108.25906
41.568936
83.263256
31.47936
0
0
0
0
513.84244
623.91421
599.89127
599.05517
637.96429
580.86941
434.673
626.25029
55.323311
55.327674
0
0
25.77026
11.083129
0
191.7002
0
0
3.7250748
0
0
0
34.687802
3.7232628
0
130.63366
0
534.43097
534.3998
0
0
0
0
0
292.74111
213.20775
171.88529
0
0
0
0
0
0
0
0
0
0
0
0
0
0
562.7842
308.06805
372.25892
319.84246
259.11792
370.00558
206.43539
302.28543
416.72327
457.0303
9.6991332
52.839339
0
0
0
421.92527
420.42964
0
0
0
0
0
535.89403
495.63258
526.34173
462.17747
216.05889
490.07648
529.12414
0
0
0
124.20919
451.61936
345.18668
449.49854
248.66674
230.407
324.8544
338.53403
413.40035
261.77937
372.01923
312.82453
0
0
257.19815
211.44375
152.90649
144.76117
0
0
0
0
0
162.44221
157.3083
139.68042
0
2.691648
50.909833
3.9252777
8.9058799
0
0
0
0
0
22.414334
91.834434
58.256665
9.0481775
0
0
8.6292332
58.25746
2.6700796
0
0
0
0
20.581133
14.0413
7.0262055
55.927778
0
0
0
0
0
0
0
0
0
0
0
0
0
0
0
0
0
0
0
0
0
0
0
0
0
0
0
0
0
0
0
0
470.77747
443.6714
431.67343
454.54027
214.34414
192.01747
201.15059
297.0508
321.5326
308.58138
310.37369
192.5716
329.32604
283.82353
315.20391
308.85583
302.1185
376.53131
338.43587
226.64325
78.564638
191.02156
0
0
0
0
0
24.820284
1.2349023
23.458149
1.1493122
228.9089
110.496
227.86758
225.70963
44.754369
63.960618
23.515119
4.4710082
141.7131
200.60481
63.946602
187.58281
73.516043
0
60.333056
0
0
0
0
0
115.44681
84.719046
62.387216
0
0
0
0
0
0
207.66743
530.27368
533.11144
507.87195
429.15811
454.23802
448.82437
555.54487
556.52828
344.50047
368.0005
630.11172
634.06303
573.88725
631.63104
635.48558
646.70875
630.71067
524.711
577.89142
630.8407
598.62908
529.27249
442.37989
555.37378
605.87027
0
0
0
0
0
0
0
0
0
0
0
0
0
0
0
555.68657
0
276.6801
303.62062
0
0
0
0
444.95077
240.62936
556.32654
561.79135
39.942748
0
0
0
0
0
0
0
403.0281
154.87396
264.07087
0
0
0
0
0
0
356.06238
302.86598
0
0
0
0
0
0
58.646419
148.90848
144.77025
76.950317
0
0
484.93051
0
0
0
0
183.33091
400.62635
0
0
0
89.132583
0
0
0
0
0
256.5514
144.40132
194.24826
262.13733
163.10533
261.9323
45.505883
176.78248
142.38138
252.11282
366.12672
488.98449
0
0
45.520273
0
107.28299
137.18581
0
0
38.945555
9.4276997
0
0
0
63.128224
142.38043
78.988382
190.46058
76.535789
37.899169
0
0
0
0
45.66023
0
0
0
0
354.81239
292.7584
188.73847
189.94159
255.70241
0
0
185.06052
0
248.29061
0
0
0
0
0
0
0
0
0
0
0
50.492882
104.62114
18.794612
0
0
42.043505
0
0
0
0
176.83806
166.2829
0
0
0
0
49.315211
0
2.5510308
0
0
158.55619
166.28436
341.86185
174.46264
441.69142
446.47587
422.43823
0
0
55.143094
153.07223
160.95328
216.15777
0
470.37573
0
0
0
513.61835
429.98236
468.65403
449.45684
408.51134
308.26414
596.20732
314.31665
257.90323
187.24443
0
407.30626
293.06768
315.92858
368.45275
389.4194
0
0
423.03059
499.7243
511.71334
0
0
518.45389
0
0
0
0
0
0
0
0
0
299.82418
211.44505
101.41789
101.8845
183.62362
114.14029
94.794907
93.045943
439.79477
339.41579
335.49237
221.3208
350.19444
338.31956
257.1386
335.92713
445.03616
414.05205
372.01728
422.42954
328.48125
423.69599
311.66488
0
0
0
0
161.77843
0
185.06914
149.81282
230.74465
105.0151
0
0
235.61799
321.32495
243.07446
16.684892
116.96473
73.171426
128.23733
183.98281
131.41613
266.44437
5.0054932
0
0
0
0
0
0
0
101.46608
17.595325
147.95303
0
0
0
0
0
0
0
0
0
0
0
0
0
0
0
0
0
0
0
0
0
0
0
0
0
0
0
0
0
0
0
0
0
0
429.02936
449.73702
300.385
263.94042
178.8723
148.97501
213.79088
375.37145
191.03239
290.28471
330.76966
67.270613
213.87655
261.92795
65.988809
71.484837
191.03361
176.05711
161.86848
89.424034
0
0
0
0
0
0
61.409194
0
0
107.27636
107.26978
45.513788
50.143052
45.519076
74.624058
0
0
107.28488
126.61841
0
143.26749
144.51562
195.91955
88.266907
158.00381
81.524029
190.008
83.106384
42.249286
0
45.918657
0
0
0
9.4246371
0
0
0
71.485934
0
0
0
0
35.441291
92.756992
0
0
0
0
0
0
0
242.49103
157.74883
164.20592
207.6586
595.36712
627.51992
518.35651
545.97198
607.57702
589.59731
360.4385
345.58191
489.96802
223.04099
555.25322
584.92983
597.26349
619.65798
610.02466
630.41704
0
59.38996
0
0
0
0
0
0
0
0
0
0
0
0
0
0
0
0
0
0
0
0
0
0
0
0
0
0
0
314.04088
398.10355
283.90954
252.35933
0
0
0
0
0
0
0
450.15118
461.68399
608.95395
0
0
0
)


1380
(
0
0
0
305.55882
0
0
0
536.2201
0
0
0
0
0
0
0
0
0
0
0
0
536.2201
197.95777
0
0
0
0
0
0
0
0
0
0
0
0
0
0
0
0
0
0
0
0
0
0
0
0
0
0
0
0
0
0
57.884243
0
0
0
0
0
0
0
0
0
0
0
0
0
0
0
0
0
0
0
0
0
0
0
0
0
0
0
0
0
57.884243
0
0
0
0
0
0
0
0
0
0
0
0
0
0
0
0
0
0
0
0
536.2201
0
0
0
0
0
0
0
0
0
0
0
0
0
0
0
0
0
0
0
0
0
0
0
0
0
0
0
0
0
0
0
0
0
0
0
0
0
57.884243
0
0
0
0
0
0
0
0
0
0
0
0
0
0
0
0
0
0
0
0
0
0
0
0
0
0
0
0
0
0
0
0
0
0
0
0
0
0
0
0
0
0
0
0
0
0
0
0
0
0
0
0
0
0
0
0
0
0
0
0
0
0
0
0
57.884243
536.2201
536.2201
0
0
0
0
0
0
45.339445
45.339445
0
0
0
0
0
0
0
0
536.2201
536.2201
536.2201
0
0
0
0
0
0
0
0
0
0
0
0
0
0
0
0
0
0
0
0
0
0
0
0
0
0
0
0
0
0
0
0
0
0
0
0
0
0
0
0
0
0
0
0
0
0
0
0
0
0
0
0
0
0
0
0
0
0
0
0
0
0
0
0
0
0
0
0
0
0
0
0
536.2201
0
0
0
0
0
0
0
0
0
0
0
0
0
0
0
0
0
0
0
0
0
0
0
0
0
0
0
0
0
0
0
0
0
0
0
0
0
0
0
0
0
0
0
0
0
0
0
45.339445
45.339445
45.339445
536.2201
536.2201
0
0
0
0
0
0
0
0
0
0
0
0
0
0
0
0
0
0
0
0
0
0
0
0
0
0
0
0
0
0
0
0
0
0
0
0
0
0
0
0
0
0
0
0
0
0
0
0
0
0
0
0
0
0
0
0
0
0
0
0
0
0
0
0
0
0
0
0
0
0
0
0
0
0
0
0
0
0
0
0
0
0
0
0
0
0
0
0
0
0
0
0
0
0
0
0
0
0
0
0
0
0
0
0
0
0
0
0
0
0
0
0
0
0
0
0
0
0
0
0
0
0
0
0
0
0
0
0
0
0
0
0
0
0
0
0
0
0
0
0
0
0
0
0
0
0
0
0
0
0
0
0
0
0
0
0
0
0
0
0
0
0
0
0
0
0
0
0
0
0
0
0
0
0
0
0
0
0
0
0
0
0
0
0
0
0
0
0
0
0
0
0
0
0
0
0
0
0
0
0
0
0
0
0
0
0
0
0
0
0
0
0
0
0
0
0
0
0
0
0
0
0
0
0
0
0
0
0
0
0
0
0
0
0
0
0
0
0
0
0
0
0
0
0
0
0
0
0
0
0
0
0
0
0
0
0
0
0
0
0
0
0
0
0
0
0
0
0
0
0
0
0
0
0
0
628.19448
626.52618
0
570.47574
0
0
0
0
0
0
0
0
580.81711
6.821519
340.63998
0
567.83285
381.35243
0
0
0
0
59.756564
0
0
0
0
0
125.8385
125.03278
15.938089
0
0
120.21588
10.298684
0
10.305733
55.663619
114.36062
0
0
0
0
0
0
0
0
0
0
0
0
0
157.56266
347.13249
0
0
0
0
0
0
0
0
0
488.74415
611.43095
559.4175
595.44385
631.7454
565.89199
310.83713
580.60266
0
0
0
0
0
0
0
315.92965
0
0
0
0
0
0
0
0
0
0
0
628.08804
627.94456
0
0
0
0
0
415.014
326.55773
0
0
0
0
0
0
0
0
0
0
0
0
0
0
0
632.11032
365.35289
419.44254
377.36204
340.46201
418.0573
0
0
520.33999
564.90822
78.796755
96.948215
0
0
0
433.0383
436.06216
0
0
0
0
0
594.80719
542.72201
578.78963
495.54619
0
594.52583
625.4018
0
0
0
0
0
0
0
0
0
0
0
446.92527
342.40413
419.45935
376.83013
0
0
0
0
0
0
0
0
0
0
0
247.0141
244.5123
222.01353
0
88.2687
9.1406734
67.520033
81.806051
0
0
0
0
0
101.51451
76.950953
103.04316
20.789433
0
0
9.920138
103.04234
17.192875
0
0
0
0
42.265853
13.348442
8.0453295
70.171747
0
0
0
0
0
0
0
0
0
0
0
0
0
0
0
0
0
0
0
0
0
0
0
0
0
0
0
0
0
0
0
0
524.2622
452.82924
476.33995
469.38747
0
0
0
0
0
0
0
0
265.55153
187.68146
240.22434
233.02663
225.88381
346.48747
274.766
174.40045
19.047222
122.79459
0
0
0
0
0
0
0
0
0
113.19092
0.89107473
112.37459
109.55567
0
0
0
0
0
71.354696
0
0
0
0
0
0
0
0
0
0
0
0
0
0
0
0
0
0
0
234.03958
530.47291
534.15624
411.48904
348.92328
385.10171
379.33704
485.08449
486.174
204.87451
231.36853
670.99437
661.74664
630.9166
618.6083
654.30101
633.2697
608.08967
473.16709
511.04489
593.14651
535.67542
433.00187
321.0132
471.79829
544.01985
0
0
0
0
0
0
0
0
0
0
0
0
0
0
0
590.63384
0
401.82293
435.04084
0
0
0
46.032601
553.75308
347.04413
596.09077
618.69852
0
0
0
0
0
0
0
0
531.11487
0
242.20279
0
0
0
0
0
0
488.88786
335.14585
0
0
0
0
0
0
0
0
0
0
0
0
590.96991
0
0
0
0
256.35821
438.41848
0
0
0
75.444901
0
0
0
0
0
235.23842
0
0
241.72245
85.415434
241.67022
0
97.041916
0
135.62756
257.34557
449.22457
0
0
0
0
2.2922363
0
0
0
0
0
0
0
0
0
0
0
0
0
0
0
0
0
0
0
0
0
0
0
379.52987
328.91163
260.73811
260.59708
314.40342
0
0
257.98937
0
309.53167
0
0
0
0
0
0
0
0
0
0
0
0
0
0
0
0
0
0
0
0
0
0
0
0
0
0
0
0
0
0
0
0
0
0
0
0
464.86065
0
451.36832
0
0
0
0
0
327.15034
0
541.69367
0
0
0
421.95217
345.14101
355.45879
340.54989
278.04862
161.01496
662.19856
444.90776
0
0
0
416.62541
309.00549
340.66049
337.17292
361.7343
0
0
524.11523
561.62518
595.91754
0
0
618.44333
0
0
0
0
0
0
0
0
0
332.23451
252.50666
181.69478
178.30444
0
193.09019
173.09268
0
0
0
0
0
0
0
0
0
467.34215
447.26545
419.45774
451.36233
0
448.92815
373.78949
0
0
0
0
0
0
0
0
0
0
0
0
0
0
0
113.41372
197.25104
120.9851
209.00302
292.52724
215.33438
328.0597
78.793199
0
0
0
0
0
0
0
52.899849
57.571722
133.47347
0
0
0
0
0
0
0
0
0
0
0
0
0
0
0
0
0
0
0
0
0
0
0
0
0
0
0
0
0
0
0
0
0
0
446.50666
506.33661
313.99534
242.01897
0
0
159.01607
346.10066
122.80479
211.28049
266.87416
17.992618
159.71807
241.6669
0
13.364716
122.80842
99.05367
151.77261
43.756079
0
0
0
0
0
0
0
0
0
0
0
0
0
0
0
0
0
0
0
0
0
0
54.854905
0
0
0
0
0
0
0
0
0
0
0
0
0
0
0
13.36803
0
0
0
0
0
0
0
0
0
0
0
0
0
282.32272
156.28816
160.40594
234.03239
596.4246
632.79298
505.36307
567.14128
591.16328
543.68042
246.05215
223.83233
448.20154
67.092435
631.97981
640.77495
660.94527
665.25068
663.77674
669.17122
0
121.76299
0
0
0
0
0
0
0
0
0
0
0
0
0
0
0
0
0
0
0
0
0
0
0
0
0
0
0
181.07653
268.01651
141.83699
102.07667
0
0
0
0
0
0
0
0
539.29523
634.38098
0
0
0
)


1380
(
0
0
0
0
0
0
0
0
0
0
0
0
0
0
0
0
0
0
0
0
0
0
0
0
0
0
0
0
0
0
0
0
0
0
0
0
0
0
0
0
0
0
0
0
0
0
0
0
0
0
0
0
0
0
0
0
0
0
0
0
0
0
0
0
0
0
0
0
0
0
0
0
0
0
0
0
0
0
0
0
0
0
0
0
0
0
0
0
0
0
0
0
0
0
0
0
0
0
0
0
0
0
0
0
0
0
0
0
0
0
0
0
0
0
0
0
0
0
0
0
0
0
0
0
0
0
0
0
0
0
0
0
0
0
0
0
0
0
0
0
0
0
0
0
0
0
0
0
0
0
0
0
0
0
0
0
0
0
0
0
0
0
0
0
0
0
0
0
0
0
0
0
0
0
0
0
0
0
0
0
0
0
0
0
0
0
0
0
0
0
0
0
0
0
0
0
0
0
0
0
0
0
0
0
0
0
0
0
0
0
0
0
0
0
0
0
0
0
0
0
0
0
0
0
0
0
0
0
0
0
0
0
0
0
0
0
0
0
0
0
0
0
0
0
0
0
0
0
0
0
0
0
0
0
0
0
0
0
0
0
0
0
0
0
0
0
0
0
0
0
0
0
0
0
0
0
0
0
0
0
0
0
0
0
0
0
0
0
0
0
0
0
0
0
0
0
0
0
0
0
0
0
0
0
0
0
0
0
0
0
0
0
0
0
0
0
0
0
0
0
0
0
0
0
0
0
0
0
0
0
0
0
0
0
0
0
0
0
0
0
0
0
0
0
0
0
0
0
0
0
0
0
0
0
0
0
0
0
0
0
0
0
0
0
0
0
0
0
0
0
0
0
0
0
0
0
0
0
0
0
0
0
0
0
0
0
0
0
0
0
0
0
0
0
0
0
0
0
0
0
0
0
0
0
0
0
0
0
0
0
0
0
0
0
0
0
0
0
0
0
0
0
0
0
0
0
0
0
0
0
0
0
0
0
0
0
0
0
0
0
0
0
0
0
0
0
0
0
0
0
0
0
0
0
0
0
0
0
0
0
0
0
0
0
0
0
0
0
0
0
0
0
0
0
0
0
0
0
0
0
0
0
0
0
0
0
0
0
0
0
0
0
0
0
0
0
0
0
0
0
0
0
0
0
0
0
0
0
0
0
0
0
0
0
0
0
0
0
0
0
0
0
0
0
0
0
0
0
0
0
0
0
0
0
0
0
0
0
0
0
0
0
0
0
0
0
0
0
0
0
0
0
0
0
0
0
0
0
0
0
0
0
0
0
0
0
0
0
0
0
0
0
0
0
0
0
0
0
0
0
0
0
0
0
0
0
0
0
0
0
0
0
0
0
0
0
0
0
0
0
0
0
0
0
0
0
0
0
0
0
0
0
0
0
0
0
0
0
0
0
0
0
0
0
0
0
0
0
482.34323
486.62418
0
456.14346
0
0
0
0
0
0
0
0
0
0
256.21837
0
512.46416
0
0
0
0
0
0
0
0
0
0
0
0
163.91804
0
0
0
0
0
0
0
0
142.43406
0
0
0
0
0
0
0
0
0
0
0
0
0
30.731193
255.12877
0
0
0
0
0
0
0
0
0
384.34505
504.48
432.9479
507.17344
528.71248
471.71194
143.83213
448.91168
0
0
0
0
0
0
0
0
0
0
0
0
0
0
0
0
0
0
0
503.12848
623.00787
0
0
0
0
0
0
0
0
0
0
0
0
0
0
0
0
0
0
0
0
0
0
600.90295
0
0
0
0
0
0
0
0
587.42758
0
0
0
0
0
262.42295
267.34253
0
0
0
0
0
567.43648
513.40603
548.21641
461.16074
0
0
0
0
0
0
0
0
0
0
0
0
0
0
0
0
0
0
0
0
0
0
0
0
0
0
0
0
0
0
0
0
0
0
0
0
0
0
0
0
0
0
0
0
0
0
0
0
0
141.83265
40.138473
0
0
0
0
0
22.253563
1.735167
84.859943
0
0
0
0
0
0
0
0
0
0
0
0
0
0
0
0
0
0
0
0
0
0
0
0
0
0
0
0
0
0
0
0
395.59945
310.99564
0
326.96418
0
0
0
0
0
0
0
0
110.15068
58.881097
123.24503
116.27231
109.7534
256.34821
163.34571
0
0
0
0
0
0
0
0
0
0
0
0
0
0
0
0
0
0
0
0
0
0
0
0
0
0
0
0
0
0
0
0
0
0
0
0
0
0
0
0
0
235.154
444.37561
448.39339
254.00903
212.55755
253.93167
248.598
340.82165
341.88796
41.426815
66.432582
609.76118
587.44484
594.916
515.94434
572.17774
526.33888
497.52451
358.41236
372.7181
469.1552
396.14428
274.06684
157.32933
322.3862
402.57059
0
0
0
0
0
0
0
0
0
0
0
0
0
0
0
530.20952
0
0
0
0
0
0
0
0
0
435.62095
576.45915
0
0
0
0
0
0
0
0
0
0
0
0
0
0
0
0
0
0
0
0
0
0
0
0
0
0
0
0
0
0
0
0
0
0
0
0
0
0
0
0
0
0
0
0
0
0
0
0
0
0
124.32154
8.5654226
124.39232
0
2.8483583
0
0
108.01216
336.38689
0
0
0
0
82.836154
0
0
0
0
0
0
0
0
0
0
0
0
0
0
0
0
0
0
0
0
0
0
0
0
0
0
0
0
0
0
0
0
0
0
0
0
0
0
0
0
0
0
0
0
0
0
0
0
0
0
0
0
0
0
0
0
0
0
0
0
0
0
0
0
0
0
0
0
0
0
0
0
0
0
0
0
0
0
0
422.07909
0
0
0
267.06015
205.19796
191.19031
180.84457
110.68924
3.7461325
626.48117
0
0
0
0
251.14227
0
0
175.2927
192.71049
0
0
548.12304
543.02126
591.69292
0
0
0
0
0
0
0
0
0
0
0
0
0
0
0
0
0
0
0
0
0
0
0
0
0
0
0
0
0
0
0
0
0
0
0
0
0
0
0
0
0
0
0
0
0
0
0
0
0
0
0
0
0
0
0
0
347.85339
0
0
0
0
0
0
0
0
9.1078093
0
110.73374
0
0
0
0
0
0
0
0
0
0
0
0
0
0
0
0
0
0
0
0
0
0
0
0
0
0
0
0
0
0
0
0
0
0
275.00633
385.47258
0
0
0
0
51.158808
182.0876
20.313573
94.664439
156.33738
0
51.992397
0
0
0
20.317356
0
0
0
0
0
0
0
0
0
0
0
0
0
0
0
0
0
0
0
0
0
0
0
0
0
0
0
0
0
0
0
0
0
0
0
0
0
0
0
0
0
0
0
0
0
0
0
0
0
0
0
0
0
0
0
288.72131
142.66935
143.8841
235.14952
503.29579
539.90055
410.08542
496.34436
482.65627
414.10335
93.423492
67.921507
333.66002
66.994896
613.83159
601.662
624.18338
610.84285
617.3688
605.28045
0
0
0
0
0
0
0
0
0
0
0
0
0
0
0
0
0
0
0
0
0
0
0
0
0
0
0
0
0
21.548209
100.72685
14.006942
42.820482
0
0
0
0
0
0
0
0
425.45783
560.05692
0
0
0
)


1380
(
0
0
0
0
0
0
0
0
0
0
0
0
0
0
0
0
0
0
0
0
0
0
0
0
0
0
0
0
0
0
0
0
0
0
0
0
0
0
0
0
0
0
0
0
0
0
0
0
0
0
0
0
0
0
0
0
0
0
0
0
0
0
0
0
0
0
0
0
0
0
0
0
0
0
0
0
0
0
0
0
0
0
0
0
0
0
0
0
0
0
0
0
0
0
0
0
0
0
0
0
0
0
0
0
0
0
0
0
0
0
0
0
0
0
0
0
0
0
0
0
0
0
0
0
0
0
0
0
0
0
0
0
0
0
0
0
0
0
0
0
0
0
0
0
0
0
0
0
0
0
0
0
0
0
0
0
0
0
0
0
0
0
0
0
0
0
0
0
0
0
0
0
0
0
0
0
0
0
0
0
0
0
0
0
0
0
0
0
0
0
0
0
0
0
0
0
0
0
0
0
0
0
0
0
0
0
0
0
0
0
0
0
0
0
0
0
0
0
0
0
0
0
0
0
0
0
0
0
0
0
0
0
0
0
0
0
0
0
0
0
0
0
0
0
0
0
0
0
0
0
0
0
0
0
0
0
0
0
0
0
0
0
0
0
0
0
0
0
0
0
0
0
0
0
0
0
0
0
0
0
0
0
0
0
0
0
0
0
0
0
0
0
0
0
0
0
0
0
0
0
0
0
0
0
0
0
0
0
0
0
0
0
0
0
0
0
0
0
0
0
0
0
0
0
0
0
0
0
0
0
0
0
0
0
0
0
0
0
0
0
0
0
0
0
0
0
0
0
0
0
0
0
0
0
0
0
0
0
0
0
0
0
0
0
0
0
0
0
0
0
0
0
0
0
0
0
0
0
0
0
0
0
0
0
0
0
0
0
0
0
0
0
0
0
0
0
0
0
0
0
0
0
0
0
0
0
0
0
0
0
0
0
0
0
0
0
0
0
0
0
0
0
0
0
0
0
0
0
0
0
0
0
0
0
0
0
0
0
0
0
0
0
0
0
0
0
0
0
0
0
0
0
0
0
0
0
0
0
0
0
0
0
0
0
0
0
0
0
0
0
0
0
0
0
0
0
0
0
0
0
0
0
0
0
0
0
0
0
0
0
0
0
0
0
0
0
0
0
0
0
0
0
0
0
0
0
0
0
0
0
0
0
0
0
0
0
0
0
0
0
0
0
0
0
0
0
0
0
0
0
0
0
0
0
0
0
0
0
0
0
0
0
0
0
0
0
0
0
0
0
0
0
0
0
0
0
0
0
0
0
0
0
0
0
0
0
0
0
0
0
0
0
0
0
0
0
0
0
0
0
0
0
0
0
0
0
0
0
0
0
0
0
0
0
0
0
0
0
0
0
0
0
0
0
0
0
0
0
0
0
0
0
0
0
0
0
0
0
0
0
0
0
0
0
0
0
0
0
0
0
0
0
0
0
0
0
0
0
0
0
0
0
0
0
443.0561
0
0
0
0
0
0
0
0
0
0
0
0
0
0
0
0
0
0
0
0
0
0
0
0
0
0
0
0
0
0
0
0
0
0
0
0
0
0
0
0
0
0
0
0
0
0
0
381.07484
295.6701
407.48449
408.40221
369.21564
0
309.00878
0
0
0
0
0
0
0
0
0
0
0
0
0
0
0
0
0
0
0
0
0
0
0
0
0
0
0
0
0
0
0
0
0
0
0
0
0
0
0
0
0
0
0
0
0
0
0
0
0
0
0
0
0
0
0
0
0
0
0
0
0
0
0
0
0
0
467.50544
498.45089
414.50202
0
0
0
0
0
0
0
0
0
0
0
0
0
0
0
0
0
0
0
0
0
0
0
0
0
0
0
0
0
0
0
0
0
0
0
0
0
0
0
0
0
0
0
0
0
0
0
0
0
0
0
0
0
0
0
0
0
0
0
0
0
0
0
0
0
0
0
0
0
0
0
0
0
0
0
0
0
0
0
0
0
0
0
0
0
0
0
0
0
0
0
0
0
0
0
0
0
0
0
0
0
0
0
0
0
0
0
0
0
0
0
0
0
0
0
0
0
0
0
0
0
0
0
0
0
0
0
0
0
0
0
0
0
0
0
0
0
0
0
0
0
0
0
0
0
0
0
0
0
0
0
0
0
0
99.224031
0
118.6462
0
192.54087
193.56803
0
0
0
0
536.0286
401.33963
468.24198
405.84546
376.67694
244.31163
234.08345
336.83163
254.03886
118.551
6.145846
175.74914
256.79322
0
0
0
0
0
0
0
0
0
0
0
0
0
0
0
0
0
0
0
0
0
0
0
0
0
0
0
0
0
0
0
0
0
0
0
0
0
0
0
0
0
0
0
0
0
0
0
0
0
0
0
0
0
0
0
0
0
0
0
0
0
0
0
0
0
0
0
0
0
0
0
0
0
0
0
0
0
0
0
0
0
0
0
0
0
0
0
0
0
0
0
0
0
0
0
0
0
0
0
0
0
0
0
0
0
0
0
0
0
0
0
0
0
0
0
0
0
0
0
0
0
0
0
0
0
0
0
0
0
0
0
0
0
0
0
0
0
0
0
0
0
0
0
0
0
0
0
0
0
0
0
0
0
0
0
0
0
0
0
0
0
0
0
0
0
0
0
0
0
0
0
0
0
0
113.51735
65.029641
34.609881
27.102483
0
0
0
0
0
0
0
0
0
0
0
0
0
0
0
0
0
0
0
0
0
0
0
0
0
0
0
0
0
0
0
0
0
0
0
0
0
0
0
0
0
0
0
0
0
0
0
0
0
0
0
0
0
0
0
0
0
0
0
0
0
0
0
0
0
0
0
0
0
0
0
0
0
0
0
0
0
0
0
0
0
0
0
0
0
0
0
0
0
0
0
0
0
0
0
0
0
0
0
0
0
0
0
0
0
0
0
0
0
0
0
0
0
0
0
0
0
0
0
0
0
0
0
0
0
0
0
0
0
0
0
0
0
0
0
0
0
0
0
0
0
0
0
0
0
0
0
0
0
0
0
0
0
0
0
0
0
0
0
0
0
0
0
0
0
0
0
0
0
0
0
0
0
0
0
0
0
0
0
0
0
0
0
0
0
0
0
0
0
0
0
0
134.01223
0
0
0
0
0
0
358.23082
274.84123
0
0
0
0
0
0
0
0
545.93028
516.92003
0
0
0
0
0
0
0
0
0
0
0
0
0
0
0
0
0
0
0
0
0
0
0
0
0
0
0
0
0
0
0
0
0
0
0
0
0
0
0
0
0
0
0
0
0
0
)

)


// ************************************************************************* //
