/*--------------------------------*- C++ -*----------------------------------*\
  =========                 |
  \\      /  F ield         | OpenFOAM: The Open Source CFD Toolbox
   \\    /   O peration     | Website:  https://openfoam.org
    \\  /    A nd           | Version:  8
     \\/     M anipulation  |
\*---------------------------------------------------------------------------*/
/*   Windows 32 and 64 bit porting by blueCAPE: http://www.bluecape.com.pt   *\
|  Based on Windows porting (2.0.x v4) by Symscape: http://www.symscape.com   |
\*---------------------------------------------------------------------------*/
FoamFile
{
    version     2.0;
    format      ascii;
    class       polyBoundaryMesh;
    location    "constant/air/polyMesh";
    object      boundary;
}
// * * * * * * * * * * * * * * * * * * * * * * * * * * * * * * * * * * * * * //

12
(
    left
    {
        type            patch;
        nFaces          38;
        startFace       17823;
    }
    right
    {
        type            patch;
        nFaces          0;
        startFace       17861;
    }
    back
    {
        type            patch;
        nFaces          0;
        startFace       17861;
    }
    front
    {
        type            patch;
        nFaces          0;
        startFace       17861;
    }
    bottom
    {
        type            wall;
        inGroups        List<word> 1(wall);
        nFaces          201;
        startFace       17861;
    }
    top
    {
        type            patch;
        nFaces          58;
        startFace       18062;
    }
    tower
    {
        type            mappedWall;
        inGroups        List<word> 
2
(
wall
mappedPatch
)
;
        nFaces          1155;
        startFace       18120;
        sampleMode      nearestPatchFace;
        sampleRegion    tower;
        samplePatch     buildings_to_air;
    }
    procBoundary5to0
    {
        type            processor;
        inGroups        List<word> 1(processor);
        nFaces          15;
        startFace       19275;
        matchTolerance  0.0001;
        myProcNo        5;
        neighbProcNo    0;
    }
    procBoundary5to1
    {
        type            processor;
        inGroups        List<word> 1(processor);
        nFaces          379;
        startFace       19290;
        matchTolerance  0.0001;
        myProcNo        5;
        neighbProcNo    1;
    }
    procBoundary5to6
    {
        type            processor;
        inGroups        List<word> 1(processor);
        nFaces          297;
        startFace       19669;
        matchTolerance  0.0001;
        myProcNo        5;
        neighbProcNo    6;
    }
    procBoundary5to7
    {
        type            processor;
        inGroups        List<word> 1(processor);
        nFaces          102;
        startFace       19966;
        matchTolerance  0.0001;
        myProcNo        5;
        neighbProcNo    7;
    }
    procBoundary5to9
    {
        type            processor;
        inGroups        List<word> 1(processor);
        nFaces          96;
        startFace       20068;
        matchTolerance  0.0001;
        myProcNo        5;
        neighbProcNo    9;
    }
)

// ************************************************************************* //
