/*--------------------------------*- C++ -*----------------------------------*\
  =========                 |
  \\      /  F ield         | OpenFOAM: The Open Source CFD Toolbox
   \\    /   O peration     | Website:  https://openfoam.org
    \\  /    A nd           | Version:  8
     \\/     M anipulation  |
\*---------------------------------------------------------------------------*/
/*   Windows 32 and 64 bit porting by blueCAPE: http://www.bluecape.com.pt   *\
|  Based on Windows porting (2.0.x v4) by Symscape: http://www.symscape.com   |
\*---------------------------------------------------------------------------*/
FoamFile
{
    version     2.0;
    format      ascii;
    class       scalarListList;
    location    "constant/vegetation";
    object      F;
}
// * * * * * * * * * * * * * * * * * * * * * * * * * * * * * * * * * * * * * //


59
(

2007
(
7.5328832e-05
1.3648572e-05
0.00026754729
7.5727072e-05
0.0003643636
9.8191408e-05
0.00016270969
1.757478e-05
3.7030742e-05
2.1282066e-05
1.6978495e-05
9.7247182e-06
0.00013559376
2.8698834e-05
9.8754847e-05
1.6362186e-05
0.00011664392
6.3559247e-05
4.2401013e-05
3.4925214e-05
3.8863004e-05
3.5337731e-05
3.8930509e-05
0.000118545
2.7814415e-05
1.2872415e-05
9.3212497e-06
1.0393069e-05
8.7174169e-06
7.2931801e-06
2.5054453e-05
1.3429131e-05
3.1064302e-05
1.8112289e-05
1.901013e-05
1.6409745e-05
2.4748141e-05
2.042731e-05
1.5782989e-05
1.6233725e-05
1.6549962e-05
1.8679608e-05
2.2852942e-05
2.3277128e-05
2.3441846e-05
2.3977111e-05
2.4602551e-05
2.4150352e-05
2.3903864e-05
1.9109221e-05
2.3445864e-05
2.4718483e-05
2.4816912e-05
2.4009576e-05
1.9488568e-05
2.761845e-05
2.7411565e-05
2.5612913e-05
2.5476598e-05
2.573436e-05
2.5917607e-05
2.5160302e-05
2.4467922e-05
2.502423e-05
2.5161799e-05
2.5325886e-05
2.5280436e-05
2.4836541e-05
2.5414581e-05
2.9907663e-05
2.6721069e-05
2.4984669e-05
2.4793165e-05
0.00010560203
2.4708759e-05
2.4315411e-05
2.4872997e-05
2.2971086e-05
2.3771399e-05
2.2842747e-05
2.5044177e-05
2.5311874e-05
2.563844e-05
2.3095074e-05
2.4138094e-05
2.323359e-05
1.8413689e-05
2.121099e-05
2.0969909e-05
1.632034e-05
2.1218048e-05
2.1098584e-05
2.4965801e-05
2.4380428e-05
2.458413e-05
1.8489852e-05
2.1174818e-05
2.1020316e-05
2.216797e-05
2.2960757e-05
2.2151931e-05
2.0088335e-05
2.1438886e-05
2.1411882e-05
2.3947357e-05
2.3610716e-05
2.4141872e-05
1.9669621e-05
2.1777108e-05
2.2059565e-05
1.9459958e-05
2.2103496e-05
2.2044767e-05
1.4858898e-05
1.6732498e-05
1.5472836e-05
2.2399093e-05
2.311298e-05
2.2250441e-05
2.2565216e-05
2.3613556e-05
2.2711205e-05
2.4532926e-05
2.3797176e-05
2.43448e-05
1.7808692e-05
2.4621411e-05
2.3797776e-05
2.3579618e-05
1.6513279e-05
0.00013031062
0.00019246121
0.00029845255
0.00067055211
0.0017214314
3.9156592e-33
5.8170519e-05
2.1401225e-05
6.2525927e-05
0.00027315236
6.3354993e-05
0.0001012096
5.6284599e-05
4.3582559e-05
4.9170338e-05
8.0347114e-06
8.9661733e-06
7.1680888e-06
4.8044432e-05
1.2593949e-05
1.2289628e-05
8.9119214e-06
4.4279482e-06
3.9395862e-06
4.933298e-06
3.2435685e-06
0.00027967149
0.00020125359
0.00025342771
0.00071682681
0.00018620493
1.1683071e-05
1.6443123e-05
1.7332597e-05
1.8397673e-05
1.1447033e-05
1.7171907e-05
1.6125566e-05
1.2730506e-05
1.7344244e-05
2.3169985e-05
1.7399531e-05
1.7886292e-05
2.8849542e-06
3.572589e-06
2.4191359e-06
2.9005108e-06
2.8990784e-06
2.8765866e-06
2.8845134e-06
2.8432739e-06
2.829777e-06
3.4153989e-06
3.0647983e-06
3.6341881e-06
4.6734301e-06
3.6743687e-06
4.4775012e-06
2.8972659e-06
2.9008427e-06
2.9019729e-06
2.2783658e-06
2.79209e-06
9.7193703e-07
3.7564696e-06
2.0947879e-05
1.2864764e-05
2.2053731e-05
3.7638083e-06
3.2365346e-06
2.0516551e-05
5.1204221e-06
5.4920539e-06
1.2979242e-05
2.1828168e-05
2.21097e-05
4.0095959e-06
3.1356951e-06
4.9955532e-06
5.2002644e-06
2.9442573e-06
2.837311e-06
2.6559799e-06
2.6520966e-06
3.1466163e-06
3.4383455e-06
3.1956326e-06
3.2829764e-06
4.0020495e-06
2.6335926e-06
2.6407902e-06
2.5702244e-06
2.6391267e-06
5.4825518e-06
5.4261941e-06
3.4736527e-06
3.7678991e-06
3.1734996e-06
3.2008354e-06
5.1345972e-06
5.3076022e-06
3.5874498e-06
3.3919115e-06
5.7476526e-06
4.9178111e-06
5.0248086e-06
5.7861862e-06
5.6881086e-06
1.6818243e-05
2.8577047e-06
4.2855521e-06
2.2428982e-05
4.1922283e-06
2.8009244e-06
2.9270179e-06
3.1570051e-06
4.5736526e-06
5.3213001e-06
5.6716711e-06
2.9829941e-06
2.9754499e-06
2.9450649e-06
2.970462e-06
2.7014185e-06
2.9169436e-06
2.9334753e-06
2.9165103e-06
3.5919049e-06
4.3847835e-06
5.5343348e-06
4.7675999e-06
2.9905337e-06
3.0276431e-06
3.4160029e-06
3.1531441e-06
2.9912695e-06
2.9894624e-06
2.9766199e-06
3.3912219e-06
4.3839607e-06
3.0443509e-06
3.2819765e-06
3.2752861e-06
2.9459897e-06
2.9713511e-06
2.9341169e-06
3.0725992e-06
4.1339433e-06
5.6107623e-06
4.9400391e-06
2.7185236e-06
3.5554292e-06
2.5636198e-06
2.9001512e-06
2.9804781e-06
2.9787794e-06
2.8958143e-06
2.8671055e-06
2.9551522e-06
2.8909111e-06
2.9636553e-06
2.8559568e-06
2.9227261e-06
2.916728e-06
2.8179309e-06
3.2201217e-06
3.8087713e-06
3.2621403e-06
4.0691324e-06
3.8829641e-06
5.4899719e-06
5.3105507e-06
3.4805841e-06
5.1667717e-06
4.1718637e-06
2.8984858e-06
3.0042217e-06
3.0189531e-06
2.9199442e-06
3.0474544e-06
3.2869726e-06
2.0946225e-06
3.2099484e-06
2.7206933e-06
3.9870987e-06
5.396765e-06
4.6160233e-06
1.6962718e-06
2.9588612e-06
2.7148327e-06
4.009439e-06
5.578261e-06
4.0302127e-06
5.5643711e-06
3.9907461e-06
4.0207379e-06
3.5536397e-06
3.8002471e-06
3.3766327e-06
3.2166151e-06
4.9496325e-06
5.3742154e-06
4.8884592e-06
5.3371062e-06
5.3097958e-06
5.0176011e-06
5.4728589e-06
5.6346382e-06
5.4376377e-06
5.4471466e-06
5.5657825e-06
5.342951e-06
5.3824296e-06
4.0311771e-06
4.2998093e-06
3.0668378e-06
3.0442661e-06
4.8701215e-06
4.6432907e-06
5.3108865e-06
5.2351349e-06
3.3527473e-06
2.8630515e-06
2.9080281e-06
2.8143665e-06
2.9823246e-06
2.6258415e-06
2.9805533e-06
2.6524353e-06
3.5954776e-06
2.9663331e-06
3.9087362e-06
4.3699306e-06
3.1684321e-06
2.7080086e-06
3.2866132e-06
2.9044115e-06
3.2727737e-06
3.3256105e-06
2.9558238e-06
2.6203804e-06
2.9644238e-06
2.6473723e-06
2.9275325e-06
2.6122331e-06
3.0992683e-06
2.9670865e-06
5.7637906e-06
5.4795062e-06
5.3938568e-06
5.9306909e-06
5.5842024e-06
5.2712917e-06
5.2678163e-06
5.5863775e-06
5.4038504e-06
5.4173246e-06
5.5449748e-06
5.3911009e-06
5.3787958e-06
3.2800954e-06
3.0278813e-06
3.3040876e-06
4.2115073e-06
3.1743117e-06
3.1680483e-06
3.8645318e-06
3.1411244e-06
4.7240061e-06
5.1654831e-06
5.1130811e-06
4.8138905e-06
4.9089685e-06
3.9179674e-06
4.8914514e-06
5.0513057e-06
3.9945344e-06
4.9114105e-06
4.988845e-06
4.0454487e-06
4.9563579e-06
4.0336065e-06
4.9279471e-06
4.9406902e-06
4.8976159e-06
4.0027349e-06
4.8983299e-06
4.9164134e-06
4.0108055e-06
4.9055227e-06
0.0016277006
0.00075369695
0.0015207578
1.8445203e-05
9.8557681e-05
1.67815e-05
9.5836048e-05
2.08015e-05
0.00010661476
1.6592417e-05
1.6764281e-05
2.5307656e-05
2.5826772e-05
2.589535e-05
2.5019416e-05
2.3655549e-05
1.8634338e-05
2.2994894e-05
9.7473471e-05
2.0446749e-05
2.0632803e-05
0.00010105979
2.7751105e-05
2.7124703e-05
0.00010001765
2.7678589e-05
2.0212667e-05
1.9927277e-05
2.7031235e-05
1.9524477e-05
2.4183709e-05
2.6807628e-05
8.9649123e-05
2.4865851e-05
1.4435175e-05
1.7130925e-05
8.593922e-05
9.2359227e-05
2.2482649e-05
2.5535731e-05
2.2685025e-05
2.0871168e-05
2.0773861e-05
2.5707802e-05
2.2944082e-05
2.2838138e-05
2.0928704e-05
2.3005926e-05
2.2227155e-05
2.4653976e-05
2.1915381e-05
1.918632e-05
1.9587504e-05
2.4197736e-05
2.1073522e-05
2.1537173e-05
1.8709784e-05
1.811636e-05
1.6541391e-05
2.1024408e-05
1.8629642e-05
2.0487314e-05
2.2172438e-05
1.9729948e-05
0.00010468552
1.8362623e-05
0.00010571103
3.1141295e-05
2.7368822e-05
3.0400645e-05
3.0700124e-05
2.7552269e-05
3.1056569e-05
3.0896524e-05
2.318035e-05
2.745143e-05
2.3669015e-05
2.6373993e-05
3.0057783e-05
2.9351398e-05
2.5604999e-05
2.4941152e-05
2.8362323e-05
3.0311251e-05
2.6368089e-05
2.8968695e-05
3.1844793e-05
1.6084324e-05
8.4201863e-06
1.5060196e-05
1.674245e-05
2.1757502e-05
2.1676193e-05
1.9539296e-05
2.7372751e-05
2.4454528e-05
2.0627072e-05
2.1843904e-05
2.1975102e-05
1.9926223e-05
2.2261527e-05
2.2429854e-05
1.9611982e-05
2.2167419e-05
2.2253472e-05
1.6948675e-05
2.4058422e-05
2.4443637e-05
2.3823744e-05
2.4368608e-05
2.7491381e-05
2.4377202e-05
2.3846663e-05
2.7206711e-05
2.4067121e-05
1.6640687e-05
0.00023711299
9.3483521e-05
9.8279004e-30
0.0065826772
0.0023923572
0.00048923287
0.0011340995
0.002649042
0.00014862382
0.00061374257
0.0020312046
9.9423986e-05
0.010036993
0.00027065413
0.00023734289
0.00014162804
0.00021601454
0.00010802249
0.00022727747
0.00014697642
7.6760885e-05
0.00010951425
0.00011746077
0.0052421858
0.031417533
0.004944327
0.0088856357
0.0011431709
0.00054145563
0.00048311716
0.0010336452
0.00049985492
5.6084467e-05
0.00067529064
0.00013184834
7.7433094e-05
6.9169995e-05
4.9116738e-05
6.4031128e-05
0.00016267089
0.00011952167
0.00014489953
9.2475216e-05
8.6210919e-05
0.00010294794
0.00089054995
0.00080234151
6.8642832e-05
0.00039182957
0.00039699163
0.00051641384
0.00043003914
0.00051456387
0.00044616843
0.00045061712
6.3494797e-05
6.6186215e-05
0.00019902546
0.00017487958
7.7487482e-05
7.7245575e-05
7.4773341e-05
7.5610388e-05
7.1532276e-05
7.037909e-05
7.7940278e-05
8.4668927e-05
7.7906601e-05
8.8377719e-05
9.7345724e-05
0.00019838385
7.7421487e-05
7.4607119e-05
7.1365435e-05
8.2245041e-05
7.1924692e-05
0.00016075549
7.7175275e-05
7.5469337e-05
7.1312495e-05
0.00015186091
0.00020685872
0.00018340641
0.00022667781
0.00022729131
0.00021406639
7.1131904e-05
6.8081787e-05
7.1789202e-05
0.00045796022
6.7094233e-05
0.00098076435
0.00014895807
0.0001520579
7.3407168e-05
6.2296374e-05
6.1718071e-05
7.8988003e-05
6.2379197e-05
5.4949629e-05
0.00018486892
0.00022200797
0.00022407114
6.2275693e-05
6.2319438e-05
5.9458381e-05
6.130535e-05
5.8650261e-05
5.581167e-05
5.3031676e-05
9.48828e-05
6.0144804e-05
0.000189504
0.00021931995
0.00022094933
6.2846087e-05
8.6671633e-05
6.7118829e-05
0.00020332504
0.00014745659
9.4593012e-05
0.00013040958
6.9585856e-05
0.00021070386
0.00015301816
6.8865679e-05
7.121951e-05
6.8216974e-05
7.0679071e-05
6.5615583e-05
6.7746829e-05
6.46805e-05
7.6896592e-05
6.1359448e-05
6.8845769e-05
9.0208862e-05
6.8284279e-05
6.2526956e-05
9.5042209e-05
0.00013086773
0.00013360147
6.9567605e-05
6.2215722e-05
6.2023032e-05
0.00048399248
0.00077923785
6.2187437e-05
6.2125454e-05
6.0172542e-05
6.0789289e-05
5.7755312e-05
5.6791905e-05
7.5581823e-05
8.0289509e-05
3.7986935e-05
7.4636763e-05
6.0744634e-05
0.00017722073
0.0001896412
0.00010705125
0.00016767279
0.00012875947
8.3363206e-05
0.00010429567
9.6017149e-05
0.00011612197
0.00011493612
0.00017238782
0.000117762
0.000103978
0.00013921986
0.00049299905
8.2225583e-05
0.0001064068
0.0005319175
9.1229971e-05
5.5694388e-05
5.4553378e-05
0.00021715485
2.0647878e-05
7.9058245e-05
0.00054398159
0.00082787776
0.00016219394
0.00014440764
0.00015218023
0.00018737958
0.00017701964
0.00022552492
0.00022687869
6.5581574e-05
7.4220994e-05
0.0001816961
0.00019383792
0.0001609425
8.0840374e-05
8.714551e-05
8.8645529e-05
0.00017399251
0.00018035222
0.00022427673
0.00022558683
5.9955565e-05
5.6955587e-05
5.8824418e-05
6.7946064e-05
0.00022504676
0.00024938031
0.00021304307
0.00019766663
0.00017566604
0.00017827064
6.8774548e-05
7.7635754e-05
6.8559986e-05
7.6849887e-05
6.6441863e-05
7.380187e-05
6.7153452e-05
7.6305127e-05
6.3647078e-05
7.2702113e-05
6.2532105e-05
6.9240474e-05
6.8736481e-05
7.7786694e-05
8.4161867e-05
0.00010945562
6.8554809e-05
7.7327561e-05
0.00010091121
9.5323284e-05
0.0001123184
0.00012929311
0.00013067207
0.00012085087
0.00013580437
9.6262115e-05
0.00010835915
9.7753201e-05
0.00019785406
0.00019206627
0.00016526153
0.00021524391
0.00023162341
7.7689109e-05
7.1843009e-05
6.9170167e-05
7.3610657e-05
7.2469723e-05
6.5134558e-05
7.9107728e-05
8.6990565e-05
7.6913039e-05
7.3566452e-05
0.00014810439
0.00013000259
7.1539925e-05
7.6753284e-05
6.9959452e-05
7.6188007e-05
7.2766646e-05
6.5996843e-05
0.00017026051
0.00018994816
0.00015909246
0.00013797763
0.00011652408
0.00013670477
8.0707217e-05
7.6639409e-05
8.5044655e-05
8.1976151e-05
0.00010244804
9.2261309e-05
0.00019247682
0.00015269366
0.0001594544
0.00015193689
0.00014133939
7.6803848e-05
0.00016505583
0.00013506059
8.1784282e-05
0.00041592472
0.00020998147
0.00032911373
0.00069783828
0.00053470725
0.00073863685
0.00029273967
0.00017039183
7.7856774e-05
0.0018633409
0.0026533502
0.0040252271
0.0032066664
0.0043512804
0.0045938201
0.0002663386
0.00018290704
0.00019277812
0.00048889001
0.00076386617
5.3286891e-05
0.0013307544
5.8244798e-05
7.2870953e-05
5.2866005e-05
5.8535309e-05
5.5635183e-05
5.8271377e-05
6.4540612e-05
6.9234239e-05
6.133131e-05
6.1048678e-05
6.236086e-05
6.5664449e-05
0.0045442144
0.0010664038
0.0001261082
0.013092221
0.00010718582
0.00010181265
0.0011824633
0.0001574639
0.00079309143
0.00055092337
0.00021123822
0.0011647378
0.00074276545
0.00020141597
0.0016596173
0.00079316664
0.00032585707
0.0019254068
0.0014962823
0.0012101025
0.0021209601
0.00015135917
0.0001658823
0.00014295319
0.00011955825
0.00023851729
6.5717552e-05
6.085339e-05
6.7193263e-05
7.781157e-05
0.00034305968
8.008069e-05
7.1017591e-05
0.0001811691
0.00011379663
0.00010754895
0.00037089633
9.587177e-05
9.1194541e-05
8.3514434e-05
0.00019587131
0.00034210597
9.7685621e-05
0.00037256658
0.00038503185
0.00012157047
0.00011510899
0.00039407102
6.7002635e-05
8.1174043e-05
9.7754459e-05
7.0139479e-05
8.4992528e-05
8.7855859e-05
9.1809477e-05
0.00010153859
0.00010073761
9.8819518e-05
9.6821422e-05
0.00011720533
0.00010193994
9.3699879e-05
0.00010043256
0.00010265087
8.8984301e-05
7.667002e-05
9.3340671e-05
0.00010620593
0.0001075963
0.00011003207
0.00035702858
0.00036292264
0.00031216496
0.00031554764
0.0002874854
0.00026095245
0.00038066613
0.00034147719
0.00036003351
7.1346612e-05
6.7978028e-05
7.830555e-05
9.5691046e-05
0.00030984624
8.240165e-05
7.4803973e-05
7.8318181e-05
0.00013142012
0.00011327271
0.0001161346
0.00010035935
0.00039567538
0.00011202129
8.2720173e-05
9.2334283e-05
0.00039469143
0.00039284048
0.00040295015
0.0001132477
0.00013372479
0.00013359888
0.00012858605
0.00011237662
0.00013270061
0.00040626615
0.0003970315
0.00040783931
7.8749287e-05
8.4739403e-05
7.5008322e-05
6.1561065e-05
6.4711956e-05
8.0631171e-05
6.7891842e-05
7.1384582e-05
8.2592871e-05
9.7718595e-05
8.6500581e-05
8.5352384e-05
8.1856315e-05
0.00010202313
9.4188473e-05
9.0409834e-05
8.8687858e-05
9.1569418e-05
9.5087737e-05
0.00011430598
0.00010082352
9.7578982e-05
0.00011311984
0.00010018918
0.00032451052
0.00036397396
0.00033048206
0.00032891854
0.00036737195
0.00033324122
0.00011287456
7.4384457e-05
8.8175933e-05
9.1108191e-05
0.00010774061
0.00010244993
8.6674175e-05
9.2628025e-05
9.7627485e-05
0.00011873184
0.0001319063
0.00012160154
0.00010491595
0.00011278119
0.00011728799
0.00010833599
0.00011258335
0.00012026833
9.7985594e-05
5.0750742e-05
0.00012685821
0.00010265478
0.000105824
9.1277e-05
8.2136655e-05
7.6693492e-05
7.8602934e-05
9.4325651e-05
0.0001010866
0.000101629
8.9717905e-05
0.00011208121
0.0001101832
8.5722518e-05
8.6960576e-05
8.9278739e-05
9.7348538e-05
0.00011955949
0.00011897922
6.3968751e-05
6.8526811e-05
6.5382546e-05
7.3375654e-05
7.1783128e-05
7.5147707e-05
9.6269209e-05
0.00010605876
0.00010361611
9.9610244e-05
9.9034608e-05
0.00010131957
0.00010949897
0.00010899214
0.00011038955
9.0378513e-05
9.6044251e-05
9.2727075e-05
0.00012013765
0.00011928754
0.00012039605
0.00011627617
0.00012237311
0.00012322063
0.00011185723
0.00011620937
0.00011869038
0.00011411648
0.00012123019
0.00012206654
0.00011150084
0.00012032421
0.00011935069
7.9941983e-05
0.00010443565
0.00010036926
8.4703517e-05
7.7223953e-05
7.2242368e-05
6.8886195e-05
8.6826366e-05
9.3324865e-05
8.3031336e-05
8.9248513e-05
7.5723739e-05
7.9325561e-05
0.00010748817
0.00010291877
0.00010455604
0.00011810027
0.00012374919
0.00011597629
0.00010973184
0.00011965809
0.00011263959
9.0652185e-05
0.00010556035
9.432658e-05
0.00010778825
9.9770874e-05
9.6945147e-05
0.00012413638
0.00011789622
0.00012271184
0.00010225068
0.00012577951
0.00013464901
0.0001258566
0.00012461873
0.0001342525
0.00012535766
0.00011989231
0.00013023937
0.00012142599
0.000131522
0.00012371723
0.00012266026
0.00010224935
9.9850027e-05
0.001136617
0.00066085735
0.0012511677
0.0011503085
0.0032099034
0.0017028362
0.002765063
0.0029818357
0.0012799667
0.0017040314
0.0028060928
0.00038677115
0.00019134656
4.555707e-05
0.0032319194
0.0059699224
0.0050358031
0.0048829034
0.00020271413
0.014940617
0.0016345311
0.00044040459
0.00074733352
0.0018480676
0.0043643851
0.00040194519
0.0006658202
0.0002783987
0.00052341865
8.6716616e-05
0.00011272021
0.00011335037
5.8795109e-05
0.00010801054
7.2287489e-05
0.0001026156
3.8426086e-05
2.7391828e-05
4.9389523e-05
0.0012857069
0.020099755
0.0012786198
0.0035919838
0.004731906
0.00017902271
0.00013791045
0.00020109507
0.00020455161
0.00018288628
0.00016924288
0.00012986349
0.00014666923
0.00018820416
0.00029598913
0.00018741205
0.00018490605
2.5480984e-05
3.4024092e-05
5.1386572e-05
2.6661744e-05
2.6609177e-05
2.6042307e-05
2.6234377e-05
2.5272766e-05
2.4962348e-05
2.6624422e-05
2.6613342e-05
3.0686852e-05
2.3136338e-05
2.8439954e-05
4.0480364e-05
3.7579193e-05
4.4794918e-05
6.7807638e-05
5.080347e-05
6.2354695e-05
8.904604e-06
3.4070793e-05
3.1543969e-05
0.00015127062
4.0646618e-05
0.00018657216
0.00025195691
6.6206861e-05
8.138099e-05
2.9545705e-05
0.00015138009
4.4845336e-05
2.5042803e-05
2.4367769e-05
6.228477e-05
6.8506834e-05
2.7162395e-05
2.7077834e-05
3.286354e-05
3.5119669e-05
4.1255527e-05
3.7745606e-05
4.2826595e-05
2.6473273e-05
2.6680424e-05
2.5302954e-05
2.5791564e-05
8.0959511e-05
7.6815151e-05
3.130481e-05
3.0509685e-05
3.8025179e-05
4.2751515e-05
6.5159049e-05
7.5429018e-05
3.3728406e-05
3.6886151e-05
7.5358936e-05
7.2319839e-05
7.7553617e-05
2.8955146e-05
2.6387251e-05
2.9351599e-05
8.9347941e-05
8.4574544e-05
3.0534365e-05
4.8838903e-05
0.00026815486
4.9998406e-05
2.8474643e-05
2.8271482e-05
2.7494195e-05
2.8134204e-05
2.3599656e-05
2.6179573e-05
2.7210576e-05
2.6418499e-05
5.3985293e-05
7.3944185e-05
7.0285169e-05
2.8544461e-05
2.8762555e-05
3.766824e-05
3.1021647e-05
2.8344186e-05
4.1152593e-05
5.6556484e-05
8.4161173e-05
6.4077837e-05
2.9594487e-05
2.9323718e-05
3.0145698e-05
3.6326624e-05
3.2321792e-05
3.9006006e-05
5.6810279e-05
2.8491553e-05
2.917442e-05
2.8187467e-05
2.8825561e-05
2.8022704e-05
5.6709935e-05
8.5833437e-05
6.6725333e-05
3.0856776e-05
5.3196804e-05
2.6676865e-05
2.8430444e-05
2.8370501e-05
2.6519057e-05
2.5817683e-05
2.7743869e-05
2.6393583e-05
2.7958042e-05
2.5560413e-05
2.6916535e-05
2.6649358e-05
2.465239e-05
2.6658968e-05
2.8651136e-05
2.8745719e-05
2.6724771e-05
3.3458269e-05
3.4896727e-05
2.0520855e-05
3.2809876e-05
2.6695604e-05
3.6722687e-05
4.536317e-05
4.1611075e-05
5.0414852e-05
4.9809392e-05
8.2911135e-05
7.7598184e-05
4.6214495e-05
7.2426101e-05
5.5738396e-05
5.2472163e-05
7.6237018e-05
5.824726e-05
1.6077831e-05
2.6995652e-05
2.5695828e-05
0.00026878391
5.5059553e-05
8.5417998e-05
0.00028168558
5.4956662e-05
8.4751794e-05
0.00027266207
5.3006073e-05
0.00027988431
5.4574301e-05
3.4042326e-05
3.094668e-05
3.7072259e-05
4.0420818e-05
6.2666702e-05
7.1985259e-05
7.1071127e-05
7.5622671e-05
7.4366211e-05
7.733051e-05
8.1221047e-05
2.8557088e-05
2.7725847e-05
8.6865845e-05
8.0667365e-05
8.0688848e-05
8.3537842e-05
7.6456387e-05
7.7703084e-05
4.4372781e-05
4.9835421e-05
2.8267739e-05
2.5209781e-05
2.5848898e-05
2.4401408e-05
5.9556125e-05
5.5800819e-05
7.2510104e-05
7.0156338e-05
2.9499993e-05
2.6879967e-05
2.9434951e-05
2.7009248e-05
3.1371822e-05
2.7744944e-05
3.5017829e-05
3.2301103e-05
3.2372937e-05
3.4109874e-05
4.2997189e-05
3.4211071e-05
4.8636446e-05
5.6760684e-05
2.8754892e-05
2.6174535e-05
2.8984125e-05
2.6867366e-05
2.7914768e-05
2.5919012e-05
3.0129744e-05
2.8066776e-05
8.8602668e-05
8.0544071e-05
7.6019105e-05
8.0240732e-05
8.0132175e-05
7.1773031e-05
7.2785509e-05
8.5885718e-05
7.9519015e-05
8.0028737e-05
8.3894483e-05
7.8923552e-05
7.8241563e-05
3.2405422e-05
3.1640867e-05
3.7341533e-05
2.8909771e-05
3.4666753e-05
3.3534833e-05
3.7879217e-05
4.9572324e-05
5.7717597e-05
6.6638373e-05
7.2842206e-05
6.560163e-05
6.6920102e-05
5.0989318e-05
6.5934247e-05
6.6205418e-05
5.1342158e-05
6.5337445e-05
7.1091528e-05
5.5495396e-05
7.0534819e-05
5.5206419e-05
6.9690721e-05
7.0132508e-05
6.7416416e-05
5.3624509e-05
6.800389e-05
6.9185676e-05
5.4104435e-05
6.8607851e-05
0.019037143
0.014259988
0.0026615802
0.0013756249
0.00044769717
0.00012698463
0.00092319949
0.0015256292
0.0016766546
0.0007268088
0.00066334306
0.0010739923
0.00086963409
0.00027988499
0.0012714947
0.00078605066
0.0036499639
0.00024629788
0.0012206028
0.00021926945
0.00026224952
0.0014849236
0.009562472
0.023923688
0.0047992929
0.0062061926
0.0052207161
0.01104772
0.00052177681
0.00067291192
0.0015045751
0.0032166108
0.00060127258
0.00085664244
0.0020767748
0.0018514657
0.0011110141
0.00131079
0.00113683
0.0031887292
0.0027062871
0.0014715695
0.00092042557
0.00027051641
0.00035240113
0.0014528874
0.00079466598
0.00092283087
0.0001256003
0.0008973739
0.00039583021
0.00016112891
0.00059332078
0.00048678273
0.00019675266
0.00016330741
0.00063908215
0.00017381391
9.3640763e-05
0.0002218883
0.00014679792
7.478155e-05
0.00010758277
8.9703141e-05
6.0168619e-05
5.2791277e-05
0.00011232279
0.0055026118
5.768272e-05
4.7753336e-05
3.8857994e-05
5.8731877e-05
6.1567417e-05
6.2733558e-05
4.8573333e-05
4.506223e-05
4.5893609e-05
3.993211e-05
3.8956156e-05
4.117058e-05
5.5126172e-05
4.5001278e-05
4.2273078e-05
3.8545663e-05
3.7265923e-05
4.0208581e-05
4.1978257e-05
4.1937811e-05
4.1099974e-05
3.9863448e-05
4.1869154e-05
4.5237981e-05
4.1889414e-05
4.5128809e-05
4.4296667e-05
4.1384131e-05
4.4562434e-05
0.00029120748
4.9997556e-05
4.0726378e-05
2.2506824e-05
3.8114702e-05
2.976186e-05
0.00029006594
8.1823478e-05
7.5873635e-05
0.00010566668
7.7810119e-05
4.2522689e-05
4.2550962e-05
4.4405245e-05
4.4570948e-05
7.4191484e-05
7.839521e-05
5.3127369e-05
4.9891559e-05
0.00023475831
0.00020505312
0.0001049635
0.00019603629
7.5985948e-05
0.00016574553
0.00019533854
9.8930278e-05
9.1597011e-05
0.00015809811
3.6981547e-05
3.9965878e-05
4.137782e-05
5.5356884e-05
6.443882e-05
6.7592736e-05
5.1916197e-05
4.1664232e-05
4.4239866e-05
0.00019010068
7.5443161e-05
4.0926352e-05
3.9836897e-05
3.9414235e-05
3.8643623e-05
4.2922562e-05
5.7259749e-05
5.3495499e-05
4.5033492e-05
4.2050129e-05
4.356573e-05
5.4090286e-05
5.6616986e-05
5.0777161e-05
4.6903587e-05
0.00022797673
5.4991474e-05
0.0001899813
7.9573342e-05
4.43606e-05
5.1398071e-05
0.00010721427
6.635782e-05
7.806023e-05
7.0525871e-05
4.5194087e-05
5.2233873e-05
0.00023004844
6.3868566e-05
4.8986526e-05
0.00010248573
7.2335437e-05
6.7389335e-05
6.2990419e-05
6.4182346e-05
4.3404336e-05
3.3112773e-05
4.7495706e-05
6.2615858e-05
3.8787599e-05
4.3203824e-05
6.5109188e-05
4.14074e-05
4.4979102e-05
5.5038191e-05
5.9109253e-05
6.038131e-05
6.5761704e-05
6.3181351e-05
6.7061652e-05
5.1645482e-05
4.8842601e-05
4.4158342e-05
4.2795696e-05
4.6241478e-05
4.3735075e-05
0.00018802118
4.4158352e-05
4.8003976e-05
4.1294014e-05
4.6001086e-05
4.6565706e-05
4.1134162e-05
4.5799316e-05
3.707401e-05
4.1094964e-05
3.9006269e-05
3.9189466e-05
4.2243877e-05
4.1845319e-05
5.1433188e-05
6.1385434e-05
4.806048e-05
5.0135702e-05
4.7273643e-05
3.9942978e-05
5.769822e-05
4.1038949e-05
3.8176548e-05
4.2665768e-05
3.9698416e-05
4.0541821e-05
4.1435174e-05
4.2023989e-05
4.0899838e-05
4.1979089e-05
4.0116576e-05
4.0813549e-05
3.9128208e-05
3.9509998e-05
4.1220715e-05
4.1675727e-05
4.5010717e-05
4.5762145e-05
4.1291072e-05
4.1761335e-05
4.6039568e-05
4.4978229e-05
4.3712454e-05
4.4773095e-05
4.0813478e-05
4.1592363e-05
4.5436698e-05
4.478917e-05
0.00027417286
0.00024513638
4.6642657e-05
4.3559436e-05
1.3658902e-05
3.5663568e-05
3.3172904e-05
0.00026951592
0.00024275544
5.8953934e-05
9.6923049e-05
4.2379795e-05
4.4194852e-05
7.9619379e-05
4.8234611e-05
9.0396913e-05
4.6159062e-05
5.579044e-05
5.9661974e-05
0.00011347457
4.6119269e-05
8.5709342e-05
4.4253312e-05
4.2907217e-05
4.2360376e-05
4.5794944e-05
4.4523703e-05
6.5842607e-05
4.4249546e-05
4.7904469e-05
4.1434384e-05
4.3593384e-05
7.9250683e-05
0.010514858
0.0015354501
0.0027918865
0.012753324
0.0012064685
0.00044011366
0.0030603679
0.00033206887
0.0013771318
0.00031224585
0.00085264971
0.0021303034
0.0029615779
0.00020368094
0.00024695684
0.00017028788
0.00028105845
0.00017991144
0.00048983758
0.002168219
0.0021950603
0.00038124815
0.00013651421
0.0001063374
0.00014313795
9.4003266e-05
0.00012787315
0.00013383064
8.0452283e-05
9.8865738e-05
0.00012832952
0.00013731162
0.00013181194
7.5178114e-05
8.228191e-05
7.6807047e-05
0.00010590772
0.00010147629
0.00010882622
5.9161577e-05
7.9281146e-05
7.3586554e-05
0.00014028702
0.00013369023
9.9743977e-05
0.00010778061
0.00016993685
0.00016960093
0.00015391483
0.00016325795
0.00032851196
0.00033232648
0.00016173511
0.00016911584
0.00016099336
0.00016793457
0.00014982266
0.00016510376
0.00015482513
0.00015686217
7.203567e-05
0.00012008129
0.00012861871
9.0628844e-05
5.3653332e-05
6.6798739e-05
0.00012229717
9.7846473e-05
0.00016129686
0.00015958921
0.00014023728
0.00013062196
0.00014379432
0.00014187719
0.00016699008
9.6523976e-05
0.00013097061
0.00012996679
0.00011890874
0.00012860948
0.0001338691
9.99898e-05
0.0001563577
0.00013035873
0.00016693957
0.00015636108
0.00016694471
8.4051593e-05
0.00029833678
0.00014965693
0.0001360285
0.00013893033
8.9923003e-05
0.00015508899
0.00031676376
0.00016031463
0.00014815689
0.0001134906
0.00012655063
0.0001533977
0.00011766941
0.00013714839
0.00012747957
0.0001581684
0.00037845846
0.00018286858
0.0001530337
6.880931e-05
8.9233633e-05
7.2371901e-05
0.00013069795
0.00015150637
0.0001101347
9.5807204e-05
0.00011905566
0.00014837559
7.0841732e-05
9.6236102e-05
7.6340011e-05
0.00015605075
0.00014094051
0.00010395285
0.00013099606
0.00031421415
0.00014963995
0.00015596236
0.00034791488
0.00013221592
0.00012913163
0.0001516876
0.00016432603
0.00014868517
0.00023850594
0.00011252943
0.00011967093
6.8141165e-05
0.00015167492
0.00016206189
0.00014640734
7.8592197e-05
8.6142553e-05
0.00026519057
8.4651068e-05
6.843381e-05
9.6223304e-05
9.2274155e-05
0.00014158521
0.00019133659
0.00012985302
9.102743e-05
0.00026028149
0.00017626403
0.00018726505
0.00011822189
0.00024838615
0.00013290867
9.9780266e-05
7.4507092e-05
0.000140972
0.00010789046
0.00013611159
0.0001254485
0.00012092137
0.00013279878
0.00014137558
0.0001243367
0.00013547492
0.00014093347
0.00032723045
0.00018808551
0.00017287647
0.00017409714
0.00013117897
0.00016288005
0.00014616294
0.00014713375
0.00018121014
0.0003657486
0.00019398619
0.000194225
0.00012811552
7.3520578e-05
7.0289265e-05
8.8201389e-05
8.3157345e-05
7.1743411e-05
7.754941e-05
0.00010296781
0.0001133243
9.4593241e-05
0.0001029593
0.00011653526
0.00011075286
6.5889494e-05
6.356337e-05
8.5507821e-05
8.9062576e-05
6.8360409e-05
8.2419181e-05
0.00013800995
0.00015892705
0.00015080354
0.0001251318
9.2317417e-05
0.00011232123
0.00012137245
0.00011633041
0.0001664601
0.00017036307
0.00016634043
0.00017031142
0.00015093403
0.00015761293
7.6667078e-05
0.00016014238
0.00016075871
0.00013814806
0.00030841988
0.00035539678
0.00031070193
0.00036415292
0.00016210791
0.00015109819
0.000165565
0.00016796747
0.00015005178
0.00015991631
0.00016484894
0.00016495028
0.00014623012
0.00014560151
0.00016151576
0.000166604
0.00015137396
0.00014193881
0.00015855327
0.00014506489
0.00011357803
0.00015590847
0.00015589844
0.00013408588
0.00014284069
7.7746661e-05
0.00011880977
0.00010930496
0.00012021782
8.3938823e-05
0.00012139303
0.00015496732
0.00015487924
0.00013255157
0.00014726682
5.7644625e-05
6.2011614e-05
0.00011385529
0.00010560553
6.3299227e-05
0.00016202796
0.00015097628
0.00015657916
0.00014932184
7.8784165e-05
7.3397607e-05
0.00012153452
0.00014695568
0.00019045747
0.00013918786
0.00013915268
9.8056395e-05
0.00010711293
0.00018490439
9.1562335e-05
0.00010011594
8.2571944e-05
0.00012683714
0.0001299961
0.00014038563
0.00011667
0.00010948847
0.00012610073
0.00013884492
0.00012855781
0.00013945258
0.00013545264
0.00019272548
0.00011888216
0.00012568078
9.4411389e-05
0.00011103042
0.00099983423
0.0028027578
0.0020039021
0.0015103602
0.0013700534
0.0024056122
0.00080401675
0.12898468
0.024208941
0.0019994407
0.007114409
0.0024167543
0.0018118597
0.0026225034
0.0014568693
0.0015292461
0.010310834
0.18985721
0.018489076
0.001913675
0.0032915872
0.0025949022
0.0026616429
0.0045032201
0.0018939467
0.002527392
0.0014953767
0.00095602408
0.0039962024
0.0047804811
0.0011237738
0.00068005941
0.001652586
)


812
(
0.028243613
0.0090025913
0.022352569
0.012563726
0.0053432332
0.015244054
0.00069462784
0.0059786641
6.1415706e-06
0.00031116544
6.8913811e-05
6.0374374e-06
0.00029848994
4.0145603e-06
0.00048056348
0.00046471493
0.00011243337
7.6246244e-05
0.00047830045
0.00036725619
0.00011005084
4.9825544e-05
4.9009959e-05
5.5273423e-06
3.9525446e-05
3.4763873e-05
5.3117465e-06
4.3970982e-05
0.00012370685
0.00012435627
0.00012059363
0.00011646164
0.00012228541
0.00011678959
0.00049603385
0.00038382726
0.00022311851
8.6587055e-05
4.3832934e-05
4.875729e-05
0.00013277102
9.9062852e-05
9.9733233e-05
3.8272496e-05
6.3258694e-05
0.00013116703
0.00043973044
0.00012311343
9.7908177e-05
9.6296522e-05
0.00011771643
0.00013349938
0.00012292969
9.5295419e-05
0.00011759915
0.00043772668
0.0004587949
0.00041730058
0.00033267799
0.00042035947
0.00038125308
0.00013362658
0.00012301355
9.9585201e-05
9.9907901e-05
0.00010947968
0.00012455895
0.00011021741
0.00011004101
0.00012478063
0.00011040725
8.8173885e-05
8.1423012e-05
0.00016542043
0.00011542714
0.00010872613
0.00010171474
0.00011715131
0.00010224618
9.1679426e-05
9.4241747e-05
0.00010823526
0.00012039506
0.00010657686
0.00010286845
0.00011833949
0.00010468205
0.00027069323
0.0002141101
0.00019849344
0.00047833885
0.00043900793
0.0001337028
0.00014862887
0.00014980851
0.00012893815
0.0001467927
0.00014324478