/*--------------------------------*- C++ -*----------------------------------*\
  =========                 |
  \\      /  F ield         | OpenFOAM: The Open Source CFD Toolbox
   \\    /   O peration     | Website:  https://openfoam.org
    \\  /    A nd           | Version:  8
     \\/     M anipulation  |
\*---------------------------------------------------------------------------*/
/*   Windows 32 and 64 bit porting by blueCAPE: http://www.bluecape.com.pt   *\
|  Based on Windows porting (2.0.x v4) by Symscape: http://www.symscape.com   |
\*---------------------------------------------------------------------------*/
FoamFile
{
    version     2.0;
    format      ascii;
    class       labelListList;
    location    "constant/vegetation";
    object      globalFaceFaces;
}
// * * * * * * * * * * * * * * * * * * * * * * * * * * * * * * * * * * * * * //


59
(

2007
(
4
9
37
38
803
804
807
808
809
810
811
812
819
820
821
822
823
824
826
828
829
830
831
832
836
837
840
842
844
847
855
856
857
858
860
861
862
866
879
880
881
882
883
884
886
887
902
904
905
906
907
918
920
921
922
923
924
928
930
931
933
951
952
953
954
956
969
970
971
973
974
991
992
994
1007
1008
1009
1010
1011
1012
1018
1019
1020
1021
1022
1023
1045
1046
1047
1048
1049
1050
1051
1052
1053
1072
1073
1074
1075
1076
1077
1078
1079
1080
1081
1082
1083
1087
1088
1089
1096
1097
1098
1099
1100
1101
1117
1118
1119
1120
1121
1122
1123
1124
1125
1126
1127
1128
1129
1130
1137
1142
1145
1148
1149
1151
1152
1153
1154
1155
1156
1157
1158
1159
1160
1161
1162
1163
1164
1165
1166
1167
1168
1169
1170
1171
1172
1173
1174
1175
1176
1177
1178
1179
1180
1181
1182
1183
1188
1198
1199
1200
1201
1202
1204
1206
1221
1222
1223
1224
1225
1226
1227
1228
1230
1231
1232
1234
1235
1236
1237
1238
1240
1243
1245
1246
1247
1248
1249
1250
1251
1252
1253
1258
1259
1260
1261
1262
1267
1268
1269
1270
1277
1278
1279
1280
1281
1282
1283
1284
1285
1286
1287
1288
1289
1310
1311
1312
1313
1314
1315
1326
1327
1328
1329
1330
1331
1332
1333
1334
1335
1336
1337
1338
1339
1340
1341
1342
1343
1344
1345
1346
1347
1348
1349
1350
1351
1352
1353
1354
1355
1356
1357
1358
1359
1360
1361
1362
1363
1364
1365
1366
1367
1368
1369
1370
1371
1372
1373
1374
1375
1376
1377
1378
1379
1380
1381
1382
1383
1384
1385
1386
1387
1388
1389
1390
1391
1392
1393
1394
1395
1396
1397
1398
1399
1400
1401
1402
1403
1404
1405
1406
1407
1408
1409
1410
1411
1412
1414
1415
1416
1417
1418
1419
1420
1421
1422
1423
1424
1425
1426
1427
1428
1429
1430
1431
1432
1434
1435
1436
1437
1438
1439
1440
1441
1442
1443
1446
1447
1448
1449
1450
1451
1452
1453
1461
1462
1463
1464
1465
1466
1467
1468
1469
1470
1471
1472
1473
1474
1475
1476
1477
1478
1479
1480
1481
1482
1483
1484
1485
1486
1497
1498
1499
1500
1501
1502
1503
1504
1505
1506
1507
1508
1509
1510
1511
1512
1513
1514
1515
1516
1517
1521
1522
1523
1524
1525
1526
1529
1530
1531
1532
1533
1534
1535
1536
1537
1538
1539
1540
1541
1543
1544
1545
1547
1548
1549
1559
1560
1571
1572
1573
1574
1576
1577
1578
1579
1580
1592
1593
1594
1595
1597
1598
1599
1600
1603
1604
1605
1606
1607
1608
1609
1610
1611
1612
1635
1636
1653
1654
1655
1656
1657
1658
1659
1660
1661
1666
1669
1670
1671
1672
1673
1674
1675
1676
1677
1678
1679
1680
1681
1682
1683
1684
1711
1725
1739
1744
1746
1747
1748
1749
1750
1751
1752
1753
1754
1755
1756
1757
1758
1759
1760
1775
1776
1777
1842
1843
1844
1845
1846
1847
1848
1852
1853
1854
1855
1856
1857
1864
1865
1866
1867
1868
1869
1870
1898
1899
1900
1921
1922
1923
1924
1925
1926
1927
1945
1946
1949
1950
1951
1952
1953
1954
1955
1956
1957
1958
1959
1960
1961
1962
1963
1964
1965
1966
1967
1968
1969
1970
1971
1972
1973
1974
1980
1986
1987
1988
2006
2008
2009
2011
2029
2030
2032
2033
2034
2036
2037
2038
2040
2054
2055
2056
2062
2063
2064
2065
2066
2067
2068
2074
2075
2078
2079
2080
2081
2082
2083
2084
2085
2086
2087
2088
2089
2090
2109
2110
2111
2112
2113
2118
2119
2120
2121
2122
2135
2136
2137
2138
2139
2140
2141
2142
2143
2144
2145
2146
2147
2148
2149
2150
2151
2152
2153
2154
2155
2156
2157
2158
2159
2160
2161
2162
2163
2164
2165
2166
2167
2168
2169
2170
2171
2172
2173
2174
2175
2176
2177
2178
2179
2180
2181
2182
2183
2184
2185
2186
2187
2188
2189
2190
2191
2192
2193
2194
2195
2196
2197
2198
2199
2200
2201
2202
2204
2205
2206
2207
2208
2209
2210
2211
2212
2213
2214
2215
2216
2217
2218
2219
2220
2221
2222
2223
2224
2225
2226
2227
2228
2229
2230
2231
2232
2233
2234
2235
2237
2243
2244
2245
2246
2247
2248
2249
2250
2251
2252
2253
2254
2255
2257
2258
2259
2260
2261
2262
2263
2264
2267
2268
2269
2270
2271
2272
2273
2274
2275
2276
2277
2278
2279
2280
2281
2282
2283
2284
2285
2286
2287
2288
2289
2290
2291
2292
2293
2294
2295
2296
2297
2298
2308
2309
2310
2311
2312
2313
2314
2315
2316
2317
2318
2319
2320
2321
2322
2323
2324
2325
2326
2329
2330
2331
2332
2333
2334
2335
2336
2337
2338
2343
2344
2345
2346
2347
2348
2349
2350
2351
2352
2353
2354
2357
2358
2359
2360
2361
2362
2363
2364
2365
2367
2368
2370
2371
2374
2376
2378
2383
2389
2393
2394
2652
2654
2656
2657
3456
3461
3462
3463
3464
3486
3493
3498
3527
3549
3577
3578
3581
3582
3583
3584
3644
3645
3732
3803
3804
3805
3806
3807
3808
3809
3810
3811
3812
3813
3814
3815
3816
3817
3818
3819
3820
3821
3822
3823
3824
3825
3826
3827
3828
3829
3830
3831
3832
3833
3834
3835
3836
3837
3838
3839
3840
3841
3842
3843
3844
3845
3846
3847
3848
3849
3850
3851
3852
3853
3854
3855
3856
3857
3858
3859
3860
3861
3862
3863
3864
3865
3866
3867
3868
3869
3870
3871
3872
3873
3874
3875
3876
3877
3879
3880
3881
3882
3883
3884
3886
3887
3888
3889
3890
3891
3892
3893
3894
3895
3896
3897
3898
3899
3900
3901
3902
3903
3904
3905
3906
3907
3908
3909
3910
3911
3912
3913
3914
3915
3916
3917
3918
3919
3920
3921
3922
3923
3924
3925
3926
3927
3928
3929
3930
3931
3932
3933
3934
3935
3936
3937
3938
3939
3940
3941
3942
3947
3948
3950
3951
3952
3953
3954
3955
3956
3957
3958
3959
3960
3961
3962
3963
3964
3965
3966
3967
3968
3969
3970
3971
3972
3973
3974
3975
3976
3977
3978
3979
3980
3981
3982
3983
3984
3985
3986
3987
3988
3989
3990
3991
3992
3993
3994
3995
3996
3997
3998
3999
4000
4001
4002
4003
4004
4005
4006
4007
4008
4009
4010
4011
4012
4013
4014
4015
4016
4017
4018
4019
4020
4021
4022
4023
4024
4025
4026
4027
4028
4029
4030
4031
4032
4033
4034
4035
4036
4037
4038
4039
4040
4041
4042
4043
4044
4045
4046
4047
4048
4049
4050
4051
4052
4053
4054
4055
4056
4057
4058
4059
4060
4061
4062
4063
4064
4065
4066
4072
4074
4080
4083
4084
4085
4086
4123
4125
4487
4488
4497
4502
4503
4954
4955
4958
4959
4960
4961
4962
4963
4964
4965
4966
4967
4968
4969
4970
4971
4972
4973
4974
4975
4976
4977
4978
4979
4980
4981
4982
4983
4984
4985
4986
4987
4988
4989
4990
4995
5005
5006
5007
5008
5009
5011
5013
5028
5029
5030
5031
5032
5033
5034
5035
5036
5037
5039
5040
5041
5043
5044
5045
5047
5050
5052
5053
5054
5055
5056
5057
5058
5059
5064
5065
5066
5071
5072
5073
5074
5081
5082
5083
5084
5085
5086
5087
5088
5089
5090
5091
5092
5093
5114
5115
5116
5117
5118
5119
5130
5131
5132
5133
5134
5135
5136
5137
5138
5139
5140
5141
5142
5143
5144
5145
5146
5147
5148
5149
5150
5151
5152
5153
5154
5155
5156
5157
5158
5159
5160
5161
5162
5163
5164
5165
5166
5167
5168
5169
5170
5171
5172
5173
5174
5175
5176
5177
5178
5179
5180
5181
5182
5183
5184
5185
5186
5187
5188
5189
5190
5191
5192
5193
5194
5195
5196
5197
5198
5199
5200
5201
5202
5203
5204
5205
5206
5207
5208
5209
5210
5211
5212
5213
5214
5215
5217
5218
5219
5220
5221
5222
5223
5224
5225
5226
5227
5228
5229
5230
5231
5232
5233
5234
5235
5236
5237
5238
5239
5241
5242
5243
5244
5245
5246
5247
5248
5249
5250
5253
5254
5255
5256
5257
5258
5259
5260
5268
5269
5270
5271
5272
5273
5274
5275
5276
5277
5278
5279
5280
5281
5282
5283
5284
5285
5286
5287
5288
5289
5290
5291
5292
5293
5304
5305
5306
5307
5308
5309
5310
5311
5312
5313
5314
5315
5316
5317
5318
5319
5320
5321
5322
5323
5324
5328
5329
5330
5331
5332
5333
5336
5337
5338
5339
5340
5341
5342
5343
5344
5345
5346
5347
5348
5349
5351
5353
5357
5358
5359
5360
5361
5364
5365
5367
5368
5369
5370
5373
5374
5376
5378
5388
5398
5403
5417
5418
5419
5420
5421
5422
5424
5425
5427
5432
5439
5447
5449
5453
5454
5455
5456
5458
5459
5460
5461
5462
5463
5466
5468
5469
5470
5471
5472
5473
5474
5475
5476
5477
5478
5479
5480
5481
5482
5484
5485
5486
5487
5488
5489
5490
5492
5493
5494
5495
5496
5497
5498
5499
5500
5501
5502
5503
5504
5505
5506
5507
5508
5509
5510
5511
5512
5513
5514
5515
5516
5517
5518
5519
5520
5521
5522
5523
5524
5525
5526
5527
5528
5529
5530
5531
5532
5533
5534
5535
5536
5537
5538
5539
5540
5541
5542
5543
5544
5545
5546
5547
5548
5549
5550
5551
5552
5553
5554
5555
5556
5557
5558
5559
5560
5561
5562
5563
5564
5565
5566
5567
5568
5569
5570
5571
5572
5573
5574
5575
5576
5577
5578
5579
5580
5581
5582
5583
5584
5585
5586
5587
5588
5589
5590
5591
5592
5593
5594
5595
5596
5597
5598
5599
5600
5601
5602
5603
5604
5605
5606
5607
5608
5609
5610
5611
5612
5613
5614
5615
5616
5617
5618
5619
5620
5621
5622
5623
5624
5625
5626
5627
5628
5629
5630
5631
5632
5633
5634
5635
5636
5637
5638
5639
5640
5641
5642
5643
5644
5645
5646
5647
5648
5649
5650
5651
5652
5653
5654
5655
5656
5657
5658
5659
5660
5661
5662
5663
5664
5665
5666
5667
5668
5669
5670
5671
5672
5673
5674
5675
5676
5677
5678
5679
5680
5681
5682
5683
5684
5685
5686
5687
5688
5689
5690
5691
5692
5693
5694
5695
5696
5711
5712
5713
5714
5715
5716
5717
5718
5719
5720
5721
5722
5723
5724
5725
5726
5727
5728
5729
5730
5731
5732
5733
5734
5735
5736
5737
5738
5739
5740
5741
5742
5743
5744
5745
5746
5747
5748
5749
5750
5751
5752
5753
5754
5755
5756
5757
5758
5759
5760
5761
5762
5763
5764
5765
5766
5767
5768
5769
5770
5771
5772
5773
5774
5775
5776
5777
5778
5779
5780
5781
5782
5783
5784
5785
5786
5787
5788
5789
5790
5791
5792
5793
5794
5795
5796
5797
5798
5799
5800
5801
5802
5803
5804
5805
5806
5807
5808
5809
5810
5811
5812
5813
5814
5815
5816
5817
5818
5819
5820
5821
5822
5823
5824
5825
5826
5827
5828
5829
5830
5831
5832
5833
5834
5835
5836
5837
5838
5839
5840
5841
5842
5843
5844
5845
5846
5847
5848
5849
5850
5851
5852
5853
5854
5855
5856
5857
5858
5859
5860
5861
5862
5863
5864
5865
5866
5867
5868
5869
5870
5871
5872
5873
5874
5875
5876
5877
5878
5879
5880
5881
5882
5883
5884
5885
5886
5887
5888
5889
5890
5891
5892
5893
5894
5895
5896
5897
5898
5899
5900
5901
5902
5903
5904
5905
5906
5907
5908
5909
5910
5911
5912
5913
5914
5915
5916
5917
5918
5919
5920
5921
5922
5923
5924
5925
5926
5927
5928
5929
5930
5931
5932
5933
5934
5935
5936
5937
5938
5939
5940
5941
5942
5943
5944
5945
5946
5947
5948
5949
5950
5951
5952
5953
5954
5955
5956
5957
5958
5959
5960
5961
5962
5963
5964
5965
5966
5967
5968
5969
5970
5971
5972
5973
5974
5975
5976
5977
5978
5979
5980
5981
5982
5983
5984
5985
5986
5987
5988
5989
5990
5991
5992
5993
5994
5995
5996
5997
5998
5999
6003
6006
6008
6009
6010
6011
6013
6016
6017
6018
6019
6020
6021
6022
6023
6024
6025
6026
6027
6028
6029
6032
6034
6035
6042
6043
6050
6053
6055
6056
6064
6067
6070
)


812
(
1949
1970
1973
2627
2628
2654
3389
3493
3498
3499
3500
3501
3502
3503
3504
3510
3511
3515
3516
3517
3518
3519
3520
3521
3522
3523
3524
3525
3526
3527
3537
3538
3539
3540
3541
3542
3543
3544
3545
3546
3547
3548
3549
3555
3556
3557
3558
3559
3560
3561
3562
3563
3564
3565
3567
3568
3569
3570
3571
3572
3573
3575
3576
3577
3578
3579
3580
3581
3582
3583
3584
3592
3593
3594
3595
3596
3597
3598
3599
3600
3601
3602
3603
3604
3605
3606
3607
3608
3609
3610
3620
3621
3622
3623
3624
3631
3632
3633
3634
3635
3636
3637
3638
3639
3643
3644
3645
3646
3649
3650
3652
3653
3654
3658
3660
3662
3665
3667
3669
3676
3678
3680
3682
3683
3684
3688
3690
3692
3694
3695
3696
3701
3703
3705
3709
3710
3715
3716
3720
3721
3726
3730
3731
3732
3736
3737
3738
3739
3740
3741
3745
3746
3747
3748
3749
3750
3757
3758
3759
3766
3767
3768
3772
3773
3774
3778
3779
3780
3784
3785
3786
3790
3791
3792
3800
3833
3834
3835
3836
3839
3840
3842
3851
3852
3853
3854
3855
3856
3857
3860
3861
3862
3863
3864
3865
3868
3873
3875
3876
3877
3878
3879
3881
3882
3885
3886
3888
3889
3915
3918
3936
3938
3939
3941
3943
3944
3945
3946
3947
3948
3949
3954
3968
3969
3971
3972
3973
3974
3975
3976
3980
3981
3982
3986
3987
3988
3989
3990
3991
3992
3993
3994
3995
3996
3997
3998
3999
4000
4001
4002
4003
4019
4022
4023
4024
4025
4026
4027
4028
4029
4030
4031
4032
4033
4034
4038
4040
4041
4042
4043
4044
4045
4046
4050
4075
4085
4090
4503
4956
4957
4980
5348
5349
5374
5376
5377
5378
5379
5388
5395
5398
5399
5402
5403
5406
5411
5417
5418
5419
5420
5421
5422
5424
5425
5426
5430
5431
5434
5435
5437
5438
5439
5445
5446
5447
5448
5449
5452
5453
5454
5455
5456
5457
5458
5463
5490
5492
5493
5494
5495
5496
5497
5498
5499
5500
5501
5502
5503
5504
5505
5506
5507
5508
5509
5510
5511
5512
5513
5514
5515
5516
5517
5518
5519
5520
5521
5522
5523
5524
5525
5526
5527
5528
5529
5530
5531
5532
5533
5534
5535
5536
5537
5538
5539
5540
5541
5542
5543
5544
5545
5546
5547
5548
5549
5550
5551
5552
5553
5554
5555
5556
5557
5558
5559
5560
5561
5562
5563
5564
5565
5566
5567
5568
5569
5570
5571
5572
5573
5574
5575
5576
5577
5578
5579
5580
5581
5582
5583
5584
5585
5586
5587
5588
5589
5590
5591
5592
5593
5594
5595
5596
5597
5598
5599
5600
5601
5602
5603
5604
5605
5606
5607
5608
5609
5610
5611
5612
5613
5614
5615
5616
5617
5618
5619
5620
5621
5622
5623
5624
5625
5626
5627
5628
5629
5630
5631
5632
5633
5634
5635
5636
5637
5638
5639
5640
5641
5642
5643
5644
5645
5646
5647
5648
5649
5650
5651
5652
5653
5654
5655
5656
5657
5658
5659
5660
5661
5662
5663
5664
5665
5666
5667
5668
5669
5670
5671
5672
5673
5674
5675
5676
5677
5678
5679
5680
5681
5682
5683
5684
5685
5686
5687
5688
5689
5690
5691
5692
5693
5694
5695
5696
5702
5705
5706
5709
5710
5738
5739
5740
5741
5742
5743
5744
5745
5746
5747
5748
5749
5750
5751
5752
5753
5754
5755
5756
5757
5758
5759
5760
5761
5762
5763
5764
5765
5766
5767
5768
5769
5770
5771
5772
5773
5774
5775
5776
5777
5778
5779
5780
5781
5782
5783
5784
5785
5786
5787
5788
5789
5790
5791
5792
5793
5794
5795
5796
5797
5798
5799
5800
5801
5802
5803
5804
5805
5806
5807
5808
5809
5810
5811
5812
5813
5814
5815
5816
5817
5818
5819
5820
5821
5822
5823
5824
5825
5826
5827
5828
5829
5830
5831
5832
5833
5834
5835
5836
5837
5838
5839
5840
5841
5842
5843
5844
5845
5846
5847
5848
5849
5850
5851
5852
5853
5854
5855
5856
5857
5858
5859
5860
5861
5862
5863
5864
5865
5866
5867
5868
5869
5870
5871
5872
5873
5874
5875
5876
5877
5878
5879
5880
5881
5882
5883
5884
5885
5886
5887
5888
5889
5890
5891
5892
5893
5894
5895
5896
5897
5898
5899
5900
5901
5902
5903
5904
5905
5906
5907
5908
5909
5910
5911
5912
5913
5914
5915
5916
5917
5918
5919
5920
5921
5922
5923
5924
5925
5926
5927
5928
5929
5930
5931
5932
5933
5934
5935
5936
5937
5938
5939
5940
5941
5942
5943
5944
5945
5946
5947
5948
5949
5950
5951
5952
5953
5954
5955
5956
5957
5958
5959
5960
5961
5962
5963
5964
5965
5966
5967
5968
5969
5970
5971
5972
5973
5974
5975
5976
5977
5978
5979
5980
5981
5982
5983
5984
5985
5986
5987
5988
5989
5990
5991
5992
5993
5994
5995
5996
5997
5998
5999
6002
6007
6025
6030
6036
6038
6040
6051
6052
6057
6059
6061
6062
6068
)


1800
(
37
38
855
856
857
858
860
861
862
866
879
880
881
882
883
884
886
887
902
904
905
906
907
918
920
921
922
923
951
952
953
954
956
969
970
971
990
991
992
1007
1008
1009
1010
1011
1012
1018
1019
1020
1021
1022
1023
1042
1043
1044
1045
1046
1047
1048
1049
1050
1051
1052
1053
1072
1073
1074
1075
1076
1077
1078
1079
1080
1081
1082
1083
1087
1088
1089
1096
1097
1098
1099
1100
1101
1117
1118
1119
1120
1121
1122
1123
1124
1125
1126
1127
1128
1129
1130
1137
1145
1148
1149
1150
1151
1172
1173
1174
1175
1176
1177
1178
1179
1180
1181
1182
1183
1188
1198
1199
1200
1201
1202
1204
1206
1221
1222
1223
1224
1225
1226
1227
1228
1230
1231
1232
1234
1235
1236
1237
1238
1240
1243
1245
1246
1247
1248
1249
1250
1251
1252
1253
1258
1259
1260
1261
1262
1267
1268
1269
1270
1277
1278
1279
1280
1281
1282
1283
1284
1285
1286
1287
1288
1289
1310
1311
1312
1313
1314
1315
1326
1327
1328
1329
1330
1331
1332
1333
1334
1335
1336
1337
1338
1339
1340
1341
1342
1343
1344
1345
1346
1347
1348
1349
1350
1351
1352
1353
1354
1355
1356
1357
1358
1359
1360
1361
1362
1363
1364
1365
1366
1367
1368
1369
1370
1371
1372
1373
1374
1375
1376
1377
1378
1379
1380
1381
1382
1383
1384
1385
1386
1387
1388
1389
1390
1391
1392
1393
1394
1395
1396
1397
1398
1399
1400
1401
1402
1403
1404
1405
1406
1407
1408
1409
1410
1411
1412
1414
1415
1416
1417
1418
1419
1420
1421
1422
1423
1424
1425
1426
1427
1428
1429
1430
1431
1432
1434
1435
1436
1437
1438
1439
1440
1441
1442
1443
1446
1447
1448
1449
1450
1451
1452
1453
1461
1462
1463
1464
1465
1466
1467
1468
1469
1470
1471
1472
1473
1474
1475
1476
1477
1478
1479
1480
1481
1482
1483
1484
1485
1486
1497
1498
1499
1500
1501
1502
1503
1504
1505
1506
1507
1508
1509
1510
1511
1512
1513
1514
1515
1516
1517
1521
1522
1523
1524
1525
1526
1529
1530
1531
1532
1533
1534
1535
1536
1537
1538
1539
1540
1543
1544
1545
1547
1548
1549
1559
1560
1571
1572
1573
1577
1578
1579
1580
1593
1594
1598
1603
1604
1605
1606
1607
1608
1609
1610
1611
1612
1635
1636
1653
1654
1655
1669
1670
1671
1672
1673
1674
1675
1676
1677
1678
1679
1680
1681
1682
1683
1684
1725
1746
1747
1748
1752
1753
1754
1755
1756
1757
1758
1759
1760
1776
1777
1842
1843
1844
1845
1846
1847
1848
1852
1853
1854
1855
1856
1857
1864
1865
1866
1867
1868
1869
1870
1898
1899
1900
1921
1922
1923
1924
1925
1926
1927
1945
1946
1949
1970
1971
1972
1973
1974
1980
1986
1987
1988
2006
2008
2009
2011
2029
2030
2032
2033
2034
2036
2037
2038
2040
2054
2055
2056
2062
2063
2064
2065
2066
2067
2068
2074
2075
2078
2079
2080
2081
2082
2083
2084
2085
2086
2087
2088
2089
2090
2109
2110
2111
2112
2113
2118
2119
2120
2121
2122
2135
2136
2137
2138
2139
2140
2141
2142
2143
2144
2145
2146
2147
2148
2149
2150
2151
2152
2153
2154
2155
2156
2157
2158
2159
2160
2161
2162
2163
2164
2165
2166
2167
2168
2169
2170
2171
2172
2173
2174
2175
2176
2177
2178
2179
2180
2181
2182
2183
2184
2185
2186
2187
2188
2189
2190
2191
2192
2193
2194
2195
2196
2197
2198
2199
2200
2201
2202
2204
2205
2206
2207
2208
2209
2210
2211
2212
2213
2214
2215
2216
2217
2218
2219
2220
2221
2222
2223
2224
2225
2226
2227
2228
2229
2230
2231
2232
2233
2234
2235
2237
2243
2244
2245
2246
2247
2248
2249
2250
2251
2252
2253
2254
2255
2257
2258
2259
2260
2261
2262
2263
2264
2267
2268
2269
2270
2271
2272
2273
2274
2275
2276
2277
2278
2279
2280
2281
2282
2283
2284
2285
2286
2287
2288
2289
2290
2291
2292
2293
2294
2295
2296
2297
2298
2308
2309
2310
2311
2312
2313
2314
2315
2316
2317
2318
2319
2320
2321
2322
2323
2324
2325
2326
2329
2330
2331
2332
2333
2334
2335
2336
2337
2338
2343
2344
2345
2346
2347
2348
2349
2350
2351
2352
2353
2354
2357
2358
2359
2360
2361
2362
2363
2364
2365
2366
2393
2394
2627
3498
3499
3501
3503
3519
3520
3521
3522
3523
3524
3525
3543
3545
3546
3609
3610
3643
3644
3645
3652
3653
3654
3658
3660
3662
3676
3678
3680
3682
3683
3684
3688
3690
3692
3694
3695
3696
3730
3731
3732
3739
3740
3741
3745
3746
3747
3748
3749
3750
3757
3758
3759
3793
3800
3833
3834
3835
3836
3837
3838
3839
3840
3841
3842
3843
3844
3845
3846
3847
3848
3849
3850
3851
3852
3853
3854
3855
3856
3857
3858
3859
3860
3861
3862
3863
3864
3865
3866
3867
3869
3870
3871
3872
3873
3874
3875
3876
3877
3878
3879
3880
3881
3882
3883
3884
3887
3890
3891
3892
3893
3894
3895
3896
3897
3898
3899
3900
3901
3902
3903
3904
3905
3906
3907
3908
3909
3910
3911
3912
3913
3914
3916
3917
3919
3920
3921
3922
3923
3924
3925
3926
3927
3928
3929
3930
3931
3932
3933
3934
3935
3936
3937
3938
3940
3941
3942
3945
3950
3951
3952
3953
3956
3957
3958
3959
3960
3961
3962
3963
3964
3965
3966
3967
3968
3969
3970
3971
3972
3973
3974
3975
3976
3977
3978
3979
3980
3981
3982
3983
3984
3985
3986
3987
3988
3989
3990
3991
3992
3993
3994
3995
3996
3997
3998
3999
4000
4001
4002
4003
4004
4005
4006
4007
4008
4009
4010
4011
4012
4013
4014
4015
4016
4017
4018
4019
4020
4021
4022
4023
4024
4025
4026
4027
4028
4029
4030
4031
4032
4033
4034
4035
4036
4037
4038
4039
4040
4041
4042
4043
4044
4045
4046
4047
4048
4049
4050
4051
4052
4053
4054
4055
4056
4057
4058
4059
4060
4061
4062
4063
4064
4065
4066
4072
4074
4080
4083
4084
4085
4086
4090
4503
4954
4955
4956
4957
4979
4980
4981
4982
4983
4984
4985
4986
4987
4988
4989
4990
4995
5005
5006
5007
5008
5009
5011
5013
5028
5029
5030
5031
5032
5033
5034
5035
5036
5037
5039
5040
5041
5043
5044
5045
5047
5050
5052
5053
5054
5055
5056
5057
5058
5059
5064
5065
5066
5071
5072
5073
5074
5081
5082
5083
5084
5085
5086
5087
5088
5089
5090
5091
5092
5093
5114
5115
5116
5117
5118
5119
5130
5131
5132
5133
5134
5135
5136
5137
5138
5139
5140
5141
5142
5143
5144
5145
5146
5147
5148
5149
5150
5151
5152
5153
5154
5155
5156
5157
5158
5159
5160
5161
5162
5163
5164
5165
5166
5167
5168
5169
5170
5171
5172
5173
5174
5175
5176
5177
5178
5179
5180
5181
5182
5183
5184
5185
5186
5187
5188
5189
5190
5191
5192
5193
5194
5195
5196
5197
5198
5199
5200
5201
5202
5203
5204
5205
5206
5207
5208
5209
5210
5211
5212
5213
5214
5215
5217
5218
5219
5220
5221
5222
5223
5224
5225
5226
5227
5228
5229
5230
5231
5232
5233
5234
5235
5236
5237
5238
5239
5241
5242
5243
5244
5245
5246
5247
5248
5249
5250
5253
5254
5255
5256
5257
5258
5259
5260
5268
5269
5270
5271
5272
5273
5274
5275
5276
5277
5278
5279
5280
5281
5282
5283
5284
5285
5286
5287
5288
5289
5290
5291
5292
5293
5304
5305
5306
5307
5308
5309
5310
5311
5312
5313
5314
5315
5316
5317
5318
5319
5320
5321
5322
5323
5324
5328
5329
5330
5331
5332
5333
5336
5337
5338
5339
5340
5341
5342
5343
5344
5345
5346
5347
5348
5349
5374
5376
5378
5388
5398
5402
5403
5406
5411
5417
5418
5419
5420
5421
5422
5424
5425
5432
5439
5447
5449
5452
5453
5454
5455
5456
5458
5459
5461
5490
5492
5493
5494
5495
5496
5497
5498
5499
5500
5501
5502
5503
5504
5505
5506
5507
5508
5509
5510
5511
5512
5513
5514
5515
5516
5517
5518
5519
5520
5521
5522
5523
5524
5525
5526
5527
5528
5529
5530
5531
5532
5533
5534
5535
5536
5537
5538
5539
5540
5541
5542
5543
5544
5545
5546
5547
5548
5549
5550
5551
5552
5553
5554
5555
5556
5557
5558
5559
5560
5561
5562
5563
5564
5565
5566
5567
5568
5569
5570
5571
5572
5573
5574
5575
5576
5577
5578
5579
5580
5581
5582
5583
5584
5585
5586
5587
5588
5589
5590
5591
5592
5593
5594
5595
5596
5597
5598
5599
5600
5601
5602
5603
5604
5605
5606
5607
5608
5609
5610
5611
5612
5613
5614
5615
5616
5617
5618
5619
5620
5621
5622
5623
5624
5625
5626
5627
5628
5629
5630
5631
5632
5633
5634
5635
5636
5637
5638
5639
5640
5641
5642
5643
5644
5645
5646
5647
5648
5649
5650
5651
5652
5653
5654
5655
5656
5657
5658
5659
5660
5661
5662
5663
5664
5665
5666
5667
5668
5669
5670
5671
5672
5673
5674
5675
5676
5677
5678
5679
5680
5681
5682
5683
5684
5685
5686
5687
5688
5689
5690
5691
5692
5693
5694
5695
5696
5702
5706
5738
5739
5740
5741
5742
5743
5744
5745
5746
5747
5748
5749
5750
5751
5752
5753
5754
5755
5756
5757
5758
5759
5760
5761
5762
5763
5764
5765
5766
5767
5768
5769
5770
5771
5772
5773
5774
5775
5776
5777
5778
5779
5780
5781
5782
5783
5784
5785
5786
5787
5788
5789
5790
5791
5792
5793
5794
5795
5796
5797
5798
5799
5800
5801
5802
5803
5804
5805
5806
5807
5808
5809
5810
5811
5812
5813
5814
5815
5816
5817
5818
5819
5820
5821
5822
5823
5824
5825
5826
5827
5828
5829
5830
5831
5832
5833
5834
5835
5836
5837
5838
5839
5840
5841
5842
5843
5844
5845
5846
5847
5848
5849
5850
5851
5852
5853
5854
5855
5856
5857
5858
5859
5860
5861
5862
5863
5864
5865
5866
5867
5868
5869
5870
5871
5872
5873
5874
5875
5876
5877
5878
5879
5880
5881
5882
5883
5884
5885
5886
5887
5888
5889
5890
5891
5892
5893
5894
5895
5896
5897
5898
5899
5900
5901
5902
5903
5904
5905
5906
5907
5908
5909
5910
5911
5912
5913
5914
5915
5916
5917
5918
5919
5920
5921
5922
5923
5924
5925
5926
5927
5928
5929
5930
5931
5932
5933
5934
5935
5936
5937
5938
5939
5940
5941
5942
5943
5944
5945
5946
5947
5948
5949
5950
5951
5952
5953
5954
5955
5956
5957
5958
5959
5960
5961
5962
5963
5964
5965
5966
5967
5968
5969
5970
5971
5972
5973
5974
5975
5976
5977
5978
5979
5980
5981
5982
5983
5984
5985
5986
5987
5988
5989
5990
5991
5992
5993
5994
5995
5996
5997
5998
5999
6003
6006
6008
6010
6011
6013
6014
6025
6026
6027
6029
6032
6034
6035
6041
6043
6050
6055
6056
6067
)


1667
(
38
856
857
858
860
861
866
879
880
881
882
883
884
905
906
907
921
922
1010
1011
1012
1021
1022
1023
1045
1046
1047
1048
1049
1050
1072
1073
1074
1075
1076
1077
1078
1079
1080
1087
1088
1089
1096
1097
1098
1099
1100
1101
1117
1118
1119
1120
1121
1122
1126
1127
1128
1129
1130
1148
1149
1150
1151
1172
1173
1174
1175
1176
1177
1178
1179
1180
1181
1182
1183
1188
1198
1199
1200
1201
1202
1204
1206
1221
1222
1223
1224
1225
1226
1227
1228
1230
1231
1232
1234
1235
1236
1237
1238
1240
1243
1245
1246
1247
1248
1249
1250
1251
1252
1253
1258
1259
1260
1261
1262
1267
1268
1269
1270
1277
1278
1279
1280
1281
1282
1283
1284
1285
1286
1287
1288
1289
1310
1311
1312
1313
1314
1315
1326
1327
1328
1329
1330
1331
1332
1333
1334
1335
1336
1337
1338
1339
1340
1341
1342
1343
1344
1345
1346
1347
1348
1349
1350
1351
1352
1353
1354
1355
1356
1357
1358
1359
1360
1361
1362
1363
1364
1365
1366
1367
1368
1369
1370
1371
1372
1373
1374
1375
1376
1377
1378
1379
1380
1381
1382
1383
1384
1385
1386
1387
1388
1389
1390
1391
1392
1393
1394
1395
1396
1397
1398
1399
1400
1401
1402
1403
1404
1405
1406
1407
1408
1409
1410
1411
1412
1414
1415
1416
1417
1418
1419
1420
1421
1422
1423
1424
1425
1426
1427
1428
1429
1430
1431
1432
1434
1435
1436
1437
1438
1439
1440
1441
1442
1443
1446
1447
1448
1449
1450
1451
1452
1453
1461
1462
1463
1464
1465
1466
1467
1468
1469
1470
1471
1472
1473
1474
1475
1476
1477
1478
1479
1480
1481
1482
1483
1484
1485
1486
1497
1498
1499
1500
1501
1502
1503
1504
1505
1506
1507
1508
1509
1510
1511
1512
1513
1514
1515
1516
1517
1521
1522
1523
1524
1525
1526
1529
1530
1531
1532
1533
1534
1535
1536
1537
1538
1539
1540
1545
1548
1559
1571
1572
1579
1580
1606
1607
1611
1612
1677
1678
1679
1680
1681
1682
1683
1684
1725
1752
1754
1842
1843
1844
1845
1846
1847
1848
1852
1855
1856
1857
1864
1865
1866
1867
1868
1869
1870
1898
1900
1921
1923
1924
1926
1927
1949
1970
1971
1972
1973
1980
1986
1987
1988
2006
2008
2009
2011
2029
2030
2032
2033
2034
2036
2037
2038
2040
2054
2055
2056
2062
2063
2064
2065
2066
2067
2068
2074
2075
2078
2079
2080
2081
2082
2083
2084
2085
2086
2087
2088
2089
2090
2109
2110
2111
2112
2113
2118
2119
2120
2121
2122
2135
2136
2137
2138
2139
2140
2141
2142
2143
2144
2145
2146
2147
2148
2149
2150
2151
2152
2153
2154
2155
2156
2157
2158
2159
2160
2161
2162
2163
2164
2165
2166
2167
2168
2169
2170
2171
2172
2173
2174
2175
2176
2177
2178
2179
2180
2181
2182
2183
2184
2185
2186
2187
2188
2189
2190
2191
2192
2193
2194
2195
2196
2197
2198
2199
2200
2201
2202
2204
2205
2206
2207
2208
2209
2210
2211
2212
2213
2214
2215
2216
2217
2218
2219
2220
2221
2222
2223
2224
2225
2226
2227
2228
2229
2230
2231
2232
2233
2234
2235
2237
2243
2244
2245
2246
2247
2248
2249
2250
2251
2252
2253
2254
2255
2257
2258
2259
2260
2261
2262
2263
2264
2267
2268
2269
2270
2271
2272
2273
2274
2275
2276
2277
2278
2279
2280
2281
2282
2283
2284
2285
2286
2287
2288
2289
2290
2291
2292
2293
2294
2295
2296
2297
2298
2308
2309
2310
2311
2312
2313
2314
2315
2316
2317
2318
2319
2320
2321
2322
2323
2324
2325
2326
2329
2330
2331
2332
2333
2334
2335
2336
2337
2338
2343
2344
2345
2346
2347
2348
2349
2350
2351
2352
2353
2354
2357
2358
2359
2360
2361
2362
2363
2364
2365
2366
2393
3498
3499
3501
3502
3503
3519
3520
3521
3522
3523
3524
3525
3543
3545
3546
3608
3609
3610
3643
3644
3645
3646
3650
3652
3653
3654
3658
3660
3662
3676
3678
3680
3682
3683
3684
3688
3690
3692
3694
3695
3696
3730
3731
3732
3737
3738
3739
3740
3741
3745
3746
3747
3748
3749
3750
3757
3758
3759
3793
3833
3834
3835
3836
3837
3838
3839
3840
3841
3842
3843
3844
3845
3846
3847
3848
3849
3850
3851
3852
3853
3854
3855
3856
3857
3858
3859
3860
3861
3862
3863
3864
3865
3866
3867
3869
3870
3871
3872
3873
3874
3875
3876
3877
3878
3879
3880
3881
3882
3883
3884
3887
3890
3891
3892
3893
3894
3895
3896
3897
3898
3899
3900
3901
3902
3903
3904
3905
3906
3907
3908
3909
3910
3911
3912
3913
3914
3920
3921
3922
3923
3924
3925
3926
3927
3928
3929
3930
3931
3932
3933
3934
3935
3936
3937
3938
3940
3941
3942
3945
3950
3951
3952
3956
3957
3958
3959
3960
3961
3962
3963
3964
3965
3966
3967
3968
3969
3970
3971
3972
3973
3974
3975
3976
3977
3978
3979
3980
3981
3982
3983
3984
3985
3986
3987
3988
3989
3990
3991
3992
3993
3994
3995
3996
3997
3998
3999
4000
4001
4002
4003
4004
4005
4006
4007
4008
4009
4010
4011
4012
4013
4014
4015
4016
4017
4018
4019
4020
4021
4022
4023
4024
4025
4026
4027
4028
4029
4030
4031
4032
4033
4034
4035
4036
4037
4038
4039
4040
4041
4042
4043
4044
4045
4046
4047
4048
4049
4050
4051
4052
4053
4054
4055
4056
4057
4058
4059
4060
4061
4062
4063
4064
4065
4066
4072
4074
4080
4083
4084
4085
4086
4090
4954
4955
4956
4957
4979
4980
4981
4982
4983
4984
4985
4986
4987
4988
4989
4990
4995
5005
5006
5007
5008
5009
5011
5013
5028
5029
5030
5031
5032
5033
5034
5035
5036
5037
5039
5040
5041
5043
5044
5045
5047
5050
5052
5053
5054
5055
5056
5057
5058
5059
5064
5065
5066
5071
5072
5073
5074
5081
5082
5083
5084
5085
5086
5087
5088
5089
5090
5091
5092
5093
5114
5115
5116
5117
5118
5119
5130
5131
5132
5133
5134
5135
5136
5137
5138
5139
5140
5141
5142
5143
5144
5145
5146
5147
5148
5149
5150
5151
5152
5153
5154
5155
5156
5157
5158
5159
5160
5161
5162
5163
5164
5165
5166
5167
5168
5169
5170
5171
5172
5173
5174
5175
5176
5177
5178
5179
5180
5181
5182
5183
5184
5185
5186
5187
5188
5189
5190
5191
5192
5193
5194
5195
5196
5197
5198
5199
5200
5201
5202
5203
5204
5205
5206
5207
5208
5209
5210
5211
5212
5213
5214
5215
5217
5218
5219
5220
5221
5222
5223
5224
5225
5226
5227
5228
5229
5230
5231
5232
5233
5234
5235
5236
5237
5238
5239
5241
5242
5243
5244
5245
5246
5247
5248
5249
5250
5253
5254
5255
5256
5257
5258
5259
5260
5268
5269
5270
5271
5272
5273
5274
5275
5276
5277
5278
5279
5280
5281
5282
5283
5284
5285
5286
5287
5288
5289
5290
5291
5292
5293
5304
5305
5306
5307
5308
5309
5310
5311
5312
5313
5314
5315
5316
5317
5318
5319
5320
5321
5322
5323
5324
5328
5329
5330
5331
5332
5333
5336
5337
5338
5339
5340
5341
5342
5343
5344
5345
5346
5347
5348
5374
5376
5378
5388
5398
5402
5403
5406
5409
5410
5411
5418
5420
5421
5422
5424
5425
5432
5439
5447
5449
5454
5455
5456
5458
5459
5492
5493
5494
5495
5496
5497
5498
5499
5500
5501
5502
5503