/*--------------------------------*- C++ -*----------------------------------*\
  =========                 |
  \\      /  F ield         | OpenFOAM: The Open Source CFD Toolbox
   \\    /   O peration     | Website:  https://openfoam.org
    \\  /    A nd           | Version:  8
     \\/     M anipulation  |
\*---------------------------------------------------------------------------*/
/*   Windows 32 and 64 bit porting by blueCAPE: http://www.bluecape.com.pt   *\
|  Based on Windows porting (2.0.x v4) by Symscape: http://www.symscape.com   |
\*---------------------------------------------------------------------------*/
FoamFile
{
    version     2.0;
    format      ascii;
    class       scalarListList;
    location    "constant/vegetation";
    object      kcLAIboundary;
}
// * * * * * * * * * * * * * * * * * * * * * * * * * * * * * * * * * * * * * //


5
(

59
(
0
2.0517621
0
0
0.5865818
0
3.2389558
0
0.2869284
3.6400237
0.99831353
0
0
0
0
0.44772668
1.1438513
0.80323059
0.38430317
0.30707906
0.79703636
0.8787065
2.1274776
2.5269476
3.3165916
1.1594322
1.8663201
2.7771768
0.26998865
0.38027106
0.4115948
0.32270083
0.4936585
0.19027333
0.21786083
0.1203327
1.8592952
0.55109536
0.40650722
0.22737485
0.19896899
0.42524208
0.25059141
1.3333166
0.35367864
0.37898965
0.26850394
0.68804895
2.7515906
1.0063699
0.33898706
0.52933568
0.87590704
1.0196972
2.5561122
2.4463162
0.68144246
1.2282053
0.76975835
)


59
(
0
1.1237941
0
0
2.0081399
0
3.2479565
1.8133334
0.29367415
2.539062
3.2654023
0
0
0
0
0.52396943
0.86477102
0.67557019
0.32756361
0.36939648
1.0262488
1.1884029
1.7314077
2.3799733
3.3922184
1.4362205
2.0790539
2.9041718
0.22947775
0.39182763
0.47611231
0.33683437
0.50274575
0.21154892
0.20585201
0.12907486
2.3097151
0.46701482
0.41532169
0.30534749
0.18979062
0.5013906
0.42627419
1.1385706
0.37639235
0.46605806
0.2557393
0.92382514
2.0030608
0.79621769
0.3205571
0.641711
0.87701584
1.6150647
2.970535
2.6741395
0.94006673
1.9651587
1.0898435
)


59
(
0
0.11342281
0
0
1.0908327
0.037915011
2.6952478
3.111506
0.43977934
1000
3.3229517
0
0
0
0
0.66148759
0.59553083
0.5032505
0.36873534
0.44048395
1.3692163
1.3427489
1.297693
2.0018235
2.973577
1.4721727
2.2173282
2.8362813
0.27871403
0.37731145
0.58668777
0.28886456
0.54841392
0.21366234
0.21597867
0.10683221
2.5379277
0.46916134
0.35712461
0.31972533
0.18590998
0.43089207
0.46807506
0.80857586
0.32090017
0.72649186
0.29375333
1.407765
1.078324
0.65750763
0.25970111
0.74024547
0.88908864
2.1003095
3.0865164
2.9170151
1.3244004
2.3179397
1.3543191
)


59
(
0
1000
0
0
1000
1000
1000
2.8518499
1000
1000
1000
0
0
0
0
0.66827373
0.52275194
0.47838372
0.38529361
0.65182564
1.6082405
1.2917172
1000
1.2715778
1000
1.2188971
1.893064
1000
0.33757337
0.34007213
0.857552
0.3036524
0.57904636
0.25075899
0.19995282
0.13774379
2.7492765
0.56677685
0.40215711
0.38419986
0.21329765
0.49130588
0.4897111
0.6507528
0.30006256
1.0394846
0.35179564
1.3749462
1000
0.52208766
0.36180567
0.89409726
1.0286587
2.4093159
2.9399815
2.7517671
1.7636858
2.6101018
1.6167195
)


59
(
0
1000
0
0
1000
1000
1000
1000
1000
1000
1000
0
0
0
0
1.0180253
1000
0.26411108
0.46172918
0.95809261
2.2720863
1000
1000
1000
1000
0.96018262
1.824622
1000
0.36643293
0.49237129
1.0136484
0.27161104
0.57365263
0.35914856
0.22216116
0.20801814
1000
1000
0.50149583
0.53657238
0.21995992
1000
0.6766615
1000
0.33560117
1.1983343
0.49336385
1.7375317
1000
1000
0.34234504
1.1241376
1000
2.5985843
1000
1000
1.9768379
2.6306224
1.9108026
)

)


// ************************************************************************* //
