/*--------------------------------*- C++ -*----------------------------------*\
  =========                 |
  \\      /  F ield         | OpenFOAM: The Open Source CFD Toolbox
   \\    /   O peration     | Website:  https://openfoam.org
    \\  /    A nd           | Version:  8
     \\/     M anipulation  |
\*---------------------------------------------------------------------------*/
/*   Windows 32 and 64 bit porting by blueCAPE: http://www.bluecape.com.pt   *\
|  Based on Windows porting (2.0.x v4) by Symscape: http://www.symscape.com   |
\*---------------------------------------------------------------------------*/
FoamFile
{
    version     2.0;
    format      ascii;
    class       scalarListList;
    location    "constant/vegetation";
    object      skyViewCoeff;
}
// * * * * * * * * * * * * * * * * * * * * * * * * * * * * * * * * * * * * * //


5
(

59
(
0
188
188
188
188
188
188
188
188
188
188
0
0
0
0
107.38677
96.93455
110.01596
120.72631
129.96586
97.185773
112.36132
108.95901
112.96547
137.49264
102.70042
97.191877
145.07248
143.68716
105.62918
123.65524
139.8432
125.87614
156.61927
144.0831
177.40961
112.15588
95.74977
101.28028
145.64673
158.1187
96.07035
101.02703
96.667277
113.89017
106.36093
140.48044
96.04749
121.74919
101.54772
125.04294
124.43299
111.11399
94.959538
118.0207
109.13986
109.83366
95.719219
110.40573
)


59
(
0
227
227
227
227
227
227
227
227
227
227
0
0
0
0
129.66381
117.04331
132.83842
145.7706
156.92686
117.34665
135.67031
131.56221
136.3998
166.01505
124.0053
117.35402
175.1673
173.4946
127.54162
149.30712
168.85322
151.98874
189.10943
173.97267
214.21267
135.42226
115.61275
122.29055
175.86068
190.91992
115.99984
121.98477
116.72059
137.51632
128.42516
169.62265
115.97224
147.00568
122.61347
150.9827
150.24622
134.16423
114.65859
142.50371
131.78057
132.6183
115.57587
133.30905
)


59
(
0
192
192
192
192
192
192
192
192
192
192
0
0
0
0
109.6716
98.996987
112.35673
123.29495
132.73109
99.253555
114.75198
111.27729
115.36899
140.41801
104.88554
99.25979
148.15912
146.74433
107.87661
126.2862
142.81858
128.55436
159.95159
147.14869
181.18429
114.54218
97.786999
103.43518
148.7456
161.48292
98.1144
103.17654
98.724027
116.31336
108.62393
143.46938
98.091054
124.3396
103.70831
127.70343
127.0805
113.47812
96.979953
120.53178
111.46198
112.17054
97.755798
112.75479
)


59
(
0
149
149
149
149
149
149
149
149
149
149
0
0
0
0
85.109728
76.825787
87.193502
95.682021
103.00485
77.024894
89.052321
86.35581
89.531144
108.97023
81.395547
77.029733
114.97765
113.87972
83.716745
98.003351
110.83317
99.763537
124.1291
114.19352
140.60656
88.889502
75.886786
80.270006
115.43278
125.31748
76.140863
80.069296
76.613959
90.264017
84.296694
111.33822
76.122745
96.492713
80.481969
99.10318
98.619764
88.063747
75.260485
93.537681
86.499142
87.049016
75.862573
87.502416
)


59
(
0
107
107
107
107
107
107
107
107
107
107
0
0
0
0
61.119067
55.170196
62.615468
68.71125
73.969929
55.313179
63.950324
62.013904
64.294177
78.253788
58.451836
55.316654
82.567846
81.779394
60.118736
70.378245
79.591606
71.642271
89.13969
82.004741
100.97249
63.833401
54.49588
57.643561
82.894682
89.993088
54.678338
57.499427
55.018078
64.820468
60.535209
79.95429
54.665327
69.293424
57.795776
71.168055
70.820904
63.240409
54.04612
67.171354
62.116833
62.511709
54.478492
62.837305
)

)


// ************************************************************************* //
