/*--------------------------------*- C++ -*----------------------------------*\
  =========                 |
  \\      /  F ield         | OpenFOAM: The Open Source CFD Toolbox
   \\    /   O peration     | Website:  https://openfoam.org
    \\  /    A nd           | Version:  8
     \\/     M anipulation  |
\*---------------------------------------------------------------------------*/
/*   Windows 32 and 64 bit porting by blueCAPE: http://www.bluecape.com.pt   *\
|  Based on Windows porting (2.0.x v4) by Symscape: http://www.symscape.com   |
\*---------------------------------------------------------------------------*/
FoamFile
{
    version     2.0;
    format      ascii;
    class       scalarListList;
    location    "constant/vegetation";
    object      solarLoadFineFaces;
}
// * * * * * * * * * * * * * * * * * * * * * * * * * * * * * * * * * * * * * //


5
(

489
(
92.151068
717.08284
717.08284
717.08284
717.08284
717.08284
28.113098
28.113098
717.08284
28.113098
717.08284
717.08284
717.08284
717.08284
28.113098
717.08284
18.824659
18.824659
717.08284
717.08284
717.08284
717.08284
18.824659
264.2453
264.2453
18.824659
717.08284
717.08284
717.08284
92.151068
92.151068
92.151068
717.08284
717.08284
717.08284
92.151068
717.08284
717.08284
717.08284
92.151068
717.08284
717.08284
717.08284
717.08284
717.08284
717.08284
717.08284
717.08284
717.08284
717.08284
717.08284
236.06784
0
0
590.70381
363.95844
0
500.05721
173.73353
58.391827
0
0
0
0
0
0
0
0
0
0
0
0
0
0
0
0
589.06617
590.12024
439.46631
502.71959
714.28441
476.05765
203.50995
0
658.79517
589.06726
487.25935
670.37275
0
439.9404
278.81227
278.81882
287.26635
680.27537
686.20625
533.24812
580.48174
456.96822
527.32156
625.24282
275.44978
289.21928
289.66895
264.52717
0
0
0
0
0
0
0
0
0
0
0
462.8735
576.22941
459.31942
370.01165
426.80699
421.07645
535.10997
391.66764
432.22534
0
0
291.4863
304.25281
287.19486
301.31198
263.91304
132.48071
433.38134
407.77327
398.24291
379.23649
441.75105
417.0808
4.2987809
134.53523
166.0239
0
0
0
0
284.87639
299.58345
145.57915
0
0
0
146.59655
0
0
0
0
0
0
0
0
0
0
0
0
0
0
0
0
0
0
0
0
0
0
0
0
0
0
0
0
0
0
0
0
0
0
0
459.28764
494.35355
565.07995
687.47183
661.62574
692.73447
620.23329
453.10329
416.68437
421.68957
433.39026
441.0992
501.67649
540.40242
465.00144
697.37331
702.78176
749.14146
59.689594
199.9406
2.049985
32.254801
168.80893
9.2745592
191.21724
407.75698
412.05185
454.38243
653.29649
401.86066
0
0
300.32429
336.23842
132.4734
132.46619
0
23.156071
87.73419
670.3847
683.4498
578.24326
686.5892
548.85621
652.89454
728.90022
591.97164
752.01796
589.84885
83.093054
0
0
0
0
0
251.44833
577.55529
400.13495
339.60832
78.220585
306.27846
64.622297
68.927166
0
0
0
0
157.57719
303.90856
87.251396
419.33817
229.58771
88.670703
600.18056
577.67165
366.39114
311.55441
170.50668
172.64278
44.59463
165.98432
294.52476
157.56362
87.241973
75.989909
0
0
0
0
0
599.23597
564.01608
0
0
0
574.72164
679.32473
401.77683
442.92219
101.89297
1.9291175
93.482894
1.8845254
0
0
693.09388
674.76935
50.505715
43.712966
28.489313
0
0
44.853054
0
0
0
0
0
0
0
289.28929
142.97404
256.92648
233.59227
303.90155
287.72179
129.98731
218.82024
188.41048
391.64201
444.96446
403.11374
270.93436
155.57268
290.94389
147.13659
239.62979
222.27258
467.57505
572.13531
393.37436
377.84186
328.615
444.70038
535.74342
378.58304
190.33563
106.83209
175.84615
270.08844
323.17415
273.34449
449.36751
274.87609
226.73146
252.08539
289.55154
310.62355
155.93749
143.33456
114.73917
0
0
0
0
0
0
0
0
0
0
0
0
0
0
0
0
580.57964
333.13598
547.28655
331.91046
419.08
661.17193
539.24761
722.3679
743.12881
719.36936
528.64456
586.48284
646.36533
658.57949
436.03298
17.680459
247.20934
264.37637
214.2818
20.131286
21.197279
23.407833
466.98275
423.20611
364.03043
180.12599
199.18672
207.10264
0
0
170.30673
296.12403
136.90221
159.47934
141.92869
153.27763
0
0
0
83.860511
701.12145
452.9489
444.79191
713.52962
722.5231
744.64347
703.94242
644.71628
141.61952
97.874861
97.61722
13.175526
0
0
0
127.10445
0
0
0
0
0
53.386756
0
32.93128
42.145788
326.60842
0
0
0
16.086194
20.580774
45.665486
45.664056
0
0
0
0
0
0
0
112.27111
236.35892
147.76493
231.38059
182.06835
181.44015
146.25361
39.291133
57.739172
39.870682
36.044265
148.39939
113.99823
328.06843
382.69
452.45649
518.39219
133.33966
82.837682
49.323348
11.456547
80.886829
0
0
27.956574
52.956438
0
0
0
0
0
0
0
0
0
0
0
349.26061
439.58886
396.51244
244.99392
266.50269
7.514815
75.91239
26.614358
)


489
(
585.76158
585.76158
585.76158
585.76158
585.76158
585.76158
22.758902
22.758902
585.76158
22.758902
585.76158
585.76158
585.76158
585.76158
22.758902
585.76158
46.24026
46.24026
585.76158
585.76158
585.76158
585.76158
585.76158
22.365298
22.365298
46.24026
585.76158
585.76158
22.758902
585.76158
585.76158
190.39841
585.76158
585.76158
585.76158
585.76158
585.76158
585.76158
585.76158
190.39841
78.631545
78.631545
22.365298
22.365298
95.543291
585.76158
585.76158
585.76158
585.76158
585.76158
585.76158
109.60808
0
0
498.11362
217.32718
20.29705
324.78152
25.465697
0
0
0
0
0
0
0
0
0
0
0
0
0
0
0
0
0
542.16071
532.74086
409.44171
324.47112
614.58857
293.68936
200.29467
0
566.56779
534.72304
308.6731
575.47741
0
243.32712
191.02611
191.03255
118.68096
498.0138
530.99717
341.94308
381.41159
287.99657
380.5284
476.25245
205.005
195.00174
216.59881
177.69898
0
0
0
0
0
0
0
0
0
0
0
389.68659
453.72839
356.77975
221.1052
299.5717
325.88154
387.86313
242.36866
298.69495
0
0
217.23716
259.82804
212.95577
257.42406
178.76718
71.494074
334.97974
283.0109
335.25898
291.35145
341.17683
289.19665
0
0
17.566736
0
0
0
0
308.94619
320.45659
99.112792
0
0
0
78.796943
0
0
0
0
0
0
0
0
0
34.182801
0
0
0
0
0
0
0
0
0
0
0
0
0
0
0
0
0
0
0
0
0
0
0
0
0
510.40194
533.40934
562.53287
625.03237
620.01249
642.90181
610.21933
427.42127
421.57989
394.50005
437.43702
498.36719
538.97891
553.98198
470.41572
590.66784
561.78149
634.7491
86.826187
165.71478
30.643916
60.24967
110.61064
26.948904
88.175543
336.84407
374.17174
373.71197
530.31517
282.94062
0
0
284.56973
321.43506
71.485635
71.48204
0
0
0
626.98888
580.32127
454.42723
551.03798
393.56077
527.75811
625.28028
394.02916
639.02772
400.54584
0
0
0
0
0
0
286.15811
552.27662
460.54048
398.5892
139.50729
350.42846
146.31003
132.97924
0
0
0
0
142.39526
261.92585
8.0032258
355.53802
106.91916
0
513.56946
485.48017
218.88663
140.27598
24.373428
18.865868
0
182.45089
288.78876
142.38455
0
0
0
40.527459
14.911599
0
0
513.61496
541.36238
74.616542
0
0
531.05374
615.24307
374.01272
250.42247
20.515654
0
0
0
0
0
533.69897
491.55487
0
0
0
0
0
48.339187
0
0
0
0
0
0
0
250.00849
96.863112
169.11115
107.28224
261.92155
215.01706
67.849574
95.121182
49.006856
285.65954
376.52995
308.85685
200.60784
138.36601
248.76065
99.470638
115.04532
100.29448
396.81695
450.09866
274.13092
228.90618
156.28895
373.94668
392.14249
229.62408
42.658022
28.317863
30.954699
98.183086
128.8079
99.720887
253.28277
83.380958
80.290934
75.684709
283.45045
300.36804
141.34247
97.20086
52.591213
0
0
0
0
0
0
0
0
0
0
0
0
16.315433
26.339919
0
0
583.62745
156.35958
391.51535
155.04763
468.76278
524.23712
421.31644
612.74488
598.42747
579.00295
326.3888
392.87107
478.74341
480.67423
240.40328
17.192823
244.77383
288.61296
174.86942
0
18.663724
7.6870929
418.92448
246.7943
226.06216
71.756495
62.322187
133.30431
0
0
178.66301
279.62702
90.637733
141.38749
94.642655
136.65764
0
0
0
0
644.79708
425.24656
418.48963
608.49963
578.5592
600.68413
562.6194
467.96834
7.8360469
0
0
0
0
0
0
0
0
0
0
0
0
0
0
0
0
154.52152
0
0
0
0
0
0
0
0
0
0
0
0
0
0
0
49.8992
13.755196
44.917961
1.9151793
0
0
0
0
0
36.112412
0
0
380.70145
446.20221
442.20786
532.46572
213.65628
162.81577
0
0
0
0
0
0
0
0
0
0
0
0
0
0
0
0
0
0
148.30208
241.26775
193.53582
51.655826
75.960501
0
0
39.48194
)


489
(
536.2201
536.2201
536.2201
536.2201
536.2201
536.2201
36.208609
36.208609
536.2201
36.208609
23.879939
180.13598
536.2201
23.879939
36.208609
536.2201
0
0
536.2201
536.2201
536.2201
536.2201
0
19.328738
19.328738
0
345.42149
516.26991
36.208609
478.72289
478.72289
536.2201
536.2201
536.2201
536.2201
478.72289
536.2201
536.2201
536.2201
478.72289
180.13598
536.2201
19.328738
19.328738
23.879939
23.879939
536.2201
536.2201
536.2201
536.2201
536.2201
0.1464052
0
14.340575
462.04896
102.24116
63.217741
198.50199
57.280745
0
0
0
0
0
0
0
0
0
0
44.915705
0
0
0
0
0
0
552.30104
532.21662
417.44824
195.82494
596.20464
158.33934
230.6788
0
551.77212
537.17633
177.95187
558.93057
0
91.995555
122.79664
122.80368
13.69208
390.25035
454.6769
212.99685
246.27496
176.02046
298.99275
401.48794
153.33495
121.68435
163.95003
108.82008
0
0
0
0
0
0
60.362682
0
0
0
0
357.0666
386.35963
294.77066
104.55636
209.88364
266.57813
291.71122
127.83536
203.60874
28.213557
2.6184391
163.63664
237.16775
158.88293
234.95962
111.45517
13.375659
273.97372
193.526
305.08146
234.36459
279.02535
197.77936
0
0
49.897398
0
0
0
0
353.50093
363.50137
56.627179
0
0
0
15.564858
0
0
0
0
0
0
0
0
0
39.582244
0
0
0
34.904899
44.777828
0
0
0
0
0
0
0
0
0
0
0
0
0
0
0
0
0
0
0
0
612.22608
623.91792
616.49564
633.72469
652.91346
667.94495
666.86806
441.57577
462.71332
403.19403
479.84824
604.23301
628.97129
622.1001
518.45651
555.05514
501.42965
603.12907
132.20134
165.13462
0
103.61251
82.752367
0
0
320.67129
390.99615
352.3275
484.53598
217.677
0
0
290.24265
332.34237
13.365333
13.364494
0
0
0
658.5375
546.25739
386.02985
485.43925
291.45871
479.77009
603.77687
260.92211
608.45175
272.77963
0
0
0
0
0
0
357.82856
595.26791
567.76535
500.47738
219.74017
435.97445
244.54108
214.92692
0
0
0
0
132.24354
241.66175
70.233808
327.05005
0.040821255
0
484.71778
448.14231
103.25056
1.4163518
53.423069
59.315512
0
205.13719
303.93691
132.23419
0
0
0
26.60587
122.8608
0
0
485.63356
573.4036
151.69218
0
0
542.57855
620.78051
379.67664
102.7139
0
0
0
0
0
0
453.4149
381.46552
0
0
0
0
0
0
0
0
0
0
0
0
0
230.75391
54.442536
98.436617
1.7094565
241.65934
162.50776
8.3418245
8.7598186
0
212.44924
346.488
248.38657
148.54796
125.96798
226.80123
55.976077
7.2969
0
367.18677
382.67352
188.31148
113.18873
13.917371
341.56287
299.52888
113.96634
44.303089
92.517454
0
0
0
0
110.21576
0
0
0
297.63773
312.83653
131.59344
54.797241
0
0
0
0
0
0
0
0
0
27.671649
0
0
0
124.27533
133.02335
0
0
651.5552
10.529223
288.77841
9.015293
558.46757
453.80222
353.84989
578.09568
536.03313
513.63337
183.00485
261.23401
377.42215
371.90076
89.422489
30.946575
280.27285
351.52142
170.60859
15.908893
30.762528
19.647542
430.90968
123.227
137.17493
0
0
93.738248
0
0
193.62203
284.05426
47.40441
128.54319
50.953339
124.58848
0
0
0
0
663.60632
437.31204
430.96385
577.06142
516.34408
539.0556
493.97202
358.24166
0
0
0
0
0
0
0
0
0
0
0
0
0
0
0
0
0
12.154144
0
0
0
0
0
0
0
0
0
0
0
0
0
0
0
0
0
0
0
0
0
0
0
0
0
0
0
475.92819
555.02266
489.34073
607.08634
317.15906
261.20447
0
0
0
0
0
0
0
0
0
0
0
0
0
0
0
0
0
0
0
88.600843
34.287625
0
0
0
0
0
)


489
(
0
411.8157
411.8157
411.8157
0
411.8157
0
0
411.8157
0
23.777174
411.8157
411.8157
23.777174
0
0
0
0
0
411.8157
411.8157
411.8157
0
0
0
0
0
0
0
0
0
0
411.8157
0
0
0
411.8157
411.8157
411.8157
0
0
0
0
0
23.777174
23.777174
0
0
411.8157
411.8157
411.8157
0
25.504908
42.594775
350.95478
0
106.26491
42.129353
0
0
0
0
0
0
0
0
0
0
42.584968
125.80224
0
0
0
0
0
0
472.85907
445.22247
353.56134
37.869577
492.68177
0
236.15522
0
460.36978
452.36113
20.619993
464.45011
0
36.438989
28.632759
28.63936
0
228.54232
317.11834
61.011821
80.015155
48.657271
183.11971
275.22717
70.161714
22.984385
78.339504
16.071703
32.579507
0
35.702881
0
0
41.210169
30.905425
30.34762
0
0
0
263.07509
256.609
182.12145
0
83.793589
160.30445
148.8065
0
73.546124
15.70228
23.119938
77.184036
169.25829
72.672059
167.54942
19.776163
31.431693
165.10866
69.89239
220.53668
134.72788
168.41054
71.813832
0
0
0
0
0
0
0
333.69851
340.82982
2.3591425
0
0
0
0
0
0
0
0
0
0
0
0
0
153.04725
49.135902
0
0
117.14909
124.33189
0
0
0
0
0
0
0
0
0
0
0
0
0
0
0
0
0
0
0
0
619.40229
615.57284
571.59598
543.87036
589.29962
591.68631
620.9052
380.30173
424.60064
341.90166
440.69211
616.3728
619.78524
590.66256
479.71668
433.25485
372.21544
483.64098
167.11455
151.00103
0
140.97114
54.747195
0
0
266.83617
357.94988
288.2447
373.69652
131.5562
0
0
241.76574
282.96062
0
31.436629
0
0
0
592.29082
426.78455
255.40085
345.20443
143.42536
367.50691
495.38194
94.10013
488.54512
106.45731
0
0
0
0
0
0
382.31211
552.71068
589.17516
529.31417
273.90526
460.69998
311.46603
271.42659
0
0
0
0
91.350045
175.37992
123.07615
241.04331
0
0
377.36911
337.66451
0
0
0
0
0
185.22264
262.61896
91.343345
0
0
50.293324
142.95038
217.24528
0
0
378.97011
512.24782
213.36672
0
0
465.65072
529.23805
318.71356
30.268352
0
0
0
0
0
0
311.73425
218.10742
0
0
0
0
0
0
0
0
0
0
0
0
0
166.98074
3.46148
5.5293827
71.576961
175.37964
77.234128
37.37411
76.970125
0
100.9568
256.35046
143.56942
65.699607
83.846561
161.03078
3.0418349
0
0
274.60712
253.34952
68.719631
0
0
249.91232
158.69726
11.386088
0
0
0
0
0
0
27.372713
0
0
0
256.28547
267.68921
91.179539
3.2666451
0
0
0
0
0
0
0
0
0
0
0
0
0
218.45637
224.72852
0
0
621.11421
0
140.54547
0
556.10635
312.99927
228.26546
454.86367
397.12019
370.78457
18.807477
93.663225
219.61939
209.15244
49.012996
51.088626
282.86436
368.79495
152.06045
16.254908
49.346062
21.257951
386.63584
0
39.914727
0
0
52.557735
0
0
167.90632
235.26008
0
85.619757
5.5759125
82.982566
0
0
0
0
581.38034
374.61532
369.5132
456.68317
382.12427
400.29615
350.30612
196.05507
0
0
0
0
0
0
0
0
0
0
0
0
0
0
0
0
0
68.897261
0
0
0
0
0
0
0
0
0
0
0
0
0
0
0
0
0
0
0
0
0
0
0
0
0
0
0
502.90302
580.23729
469.16454
592.01966
377.51853
325.68148
0
0
0
0
0
0
0
0
0
0
0
0
0
0
0
0
0
0
0
0
84.212094
0
0
0
0
0
)


489
(
0
284.42858
284.42858
284.42858
0
0
0
0
284.42858
0
0
0
0
0
0
0
0
0
0
284.42858
284.42858
284.42858
0
0
0
0
0
0
0
0
0
0
0
0
0
0
284.42858
284.42858
284.42858
0
0
0
0
0
0
0
0
0
284.42858
284.42858
284.42858
0
0
109.27038
228.15028
0
149.42623
0
0
0
0
0
0
0
0
0
0
0
0
200.3308
0
0
0
0
0
0
372.3432
339.19063
270.41949
0
379.41919
0
239.12248
0
361.37041
347.93568
0
362.22244
0
0
0
39.641341
0
74.723917
183.39877
0
0
41.629025
78.635894
155.36867
0
0
0
0
0
0
0
0
0
108.06465
7.5104305
5.9753502
0
0
0
158.01471
122.34749
65.068278
0
0
49.561364
8.8546951
0
33.106197
5.794736
57.129221
0
90.613363
10.255823
89.413302
0
0
51.982774
0
125.33068
30.750848
53.677173
31.053144
0
0
0
0
0
0
0
177.11112
179.74793
0
0
0
0
0
0
0
0
0
0
0
0
0
0
0
0
0
0
0
0
0
0
0
0
0
0
0
0
0
0
0
0
0
0
0
0
0
0
0
0
594.6927
574.63484
498.32928
433.55719
505.32187
493.74172
547.88306
298.38199
361.15684
261.45317
375.78071
596.07516
578.28332
528.92466
413.90949
299.44359
242.99345
354.68576
199.82099
141.4261
0
177.27316
37.941741
0
0
214.98174
319.31097
225.79056
262.32627
57.767817
0
0
106.96667
215.2467
0
0
0
0
0
505.37253
294.89817
120.48687
199.6771
0.14307781
255.18938
376.98515
46.6168
358.37122
0
0
0
0
0
0
0
392.90155
491.75799
580.83138
532.9663
316.95114
466.12611
363.01456
316.6222
0
0
0
0
0
97.849097
0
143.68709
0
0
256.69585
215.85682
0
0
0
0
0
0
202.79762
0
0
0
0
0
0
0
0
258.80377
426.17104
266.48441
0
0
367.45917
417.62659
239.48406
0
0
0
0
0
0
0
174.18573
62.677742
0
0
0
0
0
0
0
0
0
0
0
0
0
0
0
0
0
97.85067
0
0
0
0
0
154.83019
34.832358
0
0
51.241778
0
0
0
170.24542
119.5637
0
0
0
147.39309
19.90938
0
0
0
0
0
0
0
0
0
0
0
0
124.8701
0
0
0
0
0
0
0
0
0
0
0
0
0
0
0
0
0
0
0
564.02383
0
0
0
520.59443
168.00589
98.552417
319.72106
255.63666
222.96261
0
0
65.677684
52.727001
0
77.222241
280.52402
373.99183
138.49103
10.606031
74.202359
16.058514
336.06234
0
27.521857
0
0
24.004864
0
0
0
103.03392
0
0
0
0
0
0
0
0
478.11833
291.68607
287.85084
323.58804
247.04777
258.65961
202.23821
40.257675
0
0
0
0
0
0
0
0
0
0
0
0
0
0
0
0
0
0
0
0
0
0
0
0
0
0
0
0
0
0
0
0
0
0
0
0
0
0
0
0
0
0
0
0
0
507.10575
576.05031
434.64646
552.14264
419.15534
374.24236
0
0
0
0
0
0
0
0
0
0
0
0
0
0
0
0
0
0
0
0
0
0
0
0
0
0
)

)


// ************************************************************************* //
