/*--------------------------------*- C++ -*----------------------------------*\
  =========                 |
  \\      /  F ield         | OpenFOAM: The Open Source CFD Toolbox
   \\    /   O peration     | Website:  https://openfoam.org
    \\  /    A nd           | Version:  8
     \\/     M anipulation  |
\*---------------------------------------------------------------------------*/
/*   Windows 32 and 64 bit porting by blueCAPE: http://www.bluecape.com.pt   *\
|  Based on Windows porting (2.0.x v4) by Symscape: http://www.symscape.com   |
\*---------------------------------------------------------------------------*/
FoamFile
{
    version     2.0;
    format      ascii;
    class       labelListList;
    location    "constant/vegetation";
    object      subMap;
}
// * * * * * * * * * * * * * * * * * * * * * * * * * * * * * * * * * * * * * //


20
(
8(0 2 3 12 28 34 40 46)
8(4 11 12 13 14 33 34 40)
7(0 2 3 11 12 13 14)

17
(
0
2
3
5
8
11
12
13
14
28
31
34
35
40
41
42
46
)


15
(
0
2
3
11
12
13
14
28
31
32
33
34
35
40
46
)


38
(
0
1
2
3
5
6
7
8
9
10
11
12
13
14
15
18
19
20
21
27
28
29
31
33
34
35
37
38
39
41
42
44
45
46
47
49
50
52
)


24
(
0
2
3
5
6
7
8
10
11
12
13
18
19
21
28
29
31
34
35
40
41
42
46
50
)


35
(
0
1
2
4
5
6
7
8
9
10
11
12
13
14
16
17
22
23
24
25
26
28
31
32
33
34
35
38
43
44
46
48
49
50
51
)

0()
7(0 1 4 7 10 11 14)

48
(
0
1
2
3
4
5
6
7
8
9
10
11
12
13
14
16
17
19
20
21
22
23
24
25
26
27
32
33
35
36
37
38
39
43
44
45
46
47
48
49
51
52
53
54
55
56
57
58
)


48
(
0
1
2
3
4
5
6
7
8
9
10
11
12
13
14
15
17
18
19
20
21
24
25
26
27
28
32
33
35
36
37
38
39
41
42
43
44
45
46
47
51
52
53
54
55
56
57
58
)


37
(
0
1
2
3
4
5
6
7
9
11
12
13
14
16
17
19
20
24
25
26
27
32
33
35
36
39
43
45
46
48
51
53
54
55
56
57
58
)


31
(
0
1
2
4
9
10
11
12
13
14
17
19
24
25
26
32
33
35
37
38
39
43
44
45
46
47
51
52
55
56
58
)


48
(
0
1
2
3
4
5
6
7
8
9
10
11
12
13
14
15
18
19
20
21
24
25
26
27
28
29
30
33
34
35
36
37
38
39
41
42
44
45
46
47
51
52
53
54
55
56
57
58
)


45
(
0
1
2
3
4
5
6
7
8
9
10
11
12
13
14
16
17
19
22
23
24
25
26
27
31
32
33
35
36
37
38
39
43
45
47
48
49
51
52
53
54
55
56
57
58
)


54
(
0
1
2
3
4
5
6
7
8
9
10
11
12
13
14
15
16
17
18
19
20
21
22
23
24
25
26
27
28
31
32
33
34
35
36
37
38
39
41
42
43
44
45
46
47
49
51
52
53
54
55
56
57
58
)


37
(
0
1
2
3
4
5
6
7
8
9
10
11
12
13
14
16
17
22
23
24
25
26
31
32
33
34
35
37
38
43
44
46
48
49
50
51
52
)


43
(
0
1
2
3
4
5
6
7
8
9
10
11
12
13
14
15
16
17
18
19
20
21
22
24
27
28
29
31
32
34
37
38
40
41
42
44
45
46
47
48
49
50
52
)


59
(
0
1
2
3
4
5
6
7
8
9
10
11
12
13
14
15
16
17
18
19
20
21
22
23
24
25
26
27
28
29
30
31
32
33
34
35
36
37
38
39
40
41
42
43
44
45
46
47
48
49
50
51
52
53
54
55
56
57
58
)

)


// ************************************************************************* //
