/*--------------------------------*- C++ -*----------------------------------*\
  =========                 |
  \\      /  F ield         | OpenFOAM: The Open Source CFD Toolbox
   \\    /   O peration     | Website:  https://openfoam.org
    \\  /    A nd           | Version:  8
     \\/     M anipulation  |
\*---------------------------------------------------------------------------*/
/*   Windows 32 and 64 bit porting by blueCAPE: http://www.bluecape.com.pt   *\
|  Based on Windows porting (2.0.x v4) by Symscape: http://www.symscape.com   |
\*---------------------------------------------------------------------------*/
FoamFile
{
    version     2.0;
    format      ascii;
    class       scalarListList;
    location    "constant/vegetation";
    object      sunViewCoeff;
}
// * * * * * * * * * * * * * * * * * * * * * * * * * * * * * * * * * * * * * //


5
(

59
(
0
92.151068
717.08284
717.08284
717.08284
717.08284
168.85386
717.08284
717.08284
18.824659
488.40842
0
0
0
0
320.38792
0
13.679709
519.53978
507.00334
47.211279
18.763775
0
0
0
0
0
0
690.60674
369.27565
452.06669
452.54184
168.42543
506.78889
692.7683
714.41973
0
199.68733
315.73842
553.51199
735.99628
205.79628
294.05628
0
457.90867
290.066
659.79414
91.209932
0
17.341902
507.81384
166.47702
5.5270579
0.51043836
0
0
205.71594
0
45.711795
)


59
(
0
455.32581
585.76158
585.76158
438.02418
585.76158
22.758902
462.00519
585.76158
180.18304
22.365298
0
0
0
0
169.76108
0
6.3264187
424.16068
320.92398
10.207974
15.612279
0
0
0
0
0
0
568.94247
365.83544
271.05909
468.74966
128.31451
386.65984
620.57361
557.0867
0
146.29452
262.62935
351.51538
659.86716
174.68006
203.27479
0
393.39023
135.87925
512.34272
8.6280095
0
30.824128
539.04866
32.377248
8.864156
0
0
0
13.683437
0
12.117228
)


59
(
0
497.93349
536.2201
536.2201
280.97699
534.19489
36.208609
23.879939
487.70958
0
19.328738
0
0
0
0
54.170471
13.337103
4.6053923
377.09428
185.39513
0
12.610467
0
0
0
0
0
0
518.63861
392.25496
130.00249
539.42902
124.01943
330.37086
619.92482
479.83617
0
103.00185
232.45748
209.94328
663.25887
153.74999
132.28223
0
368.22616
11.565395
432.33588
0
15.540445
138.42125
620.56524
3.7574163
17.478684
0
0
0
0
0
0
)


59
(
0
0
411.8157
411.8157
234.39971
245.15976
0
23.777174
0
0
0
0
0
0
0
15.193115
26.556509
31.820648
266.63353
17.784551
0
0
8.7369648
0
0
0
0
0
387.57106
349.37487
9.7617962
534.88023
112.33797
235.49195
521.8634
337.63102
0
29.323097
158.2653
38.006219
567.81402
88.569146
42.769402
0
279.82257
21.549976
285.36264
0
0
225.717
605.78238
0
7.0912997
0
0
0
0
0
0
)


59
(
0
0
284.42858
284.42858
0
0
0
0
0
0
0
0
0
0
0
0
34.648196
70.081574
140.32295
23.061007
0
0
0
0
0
0
0
0
246.98713
239.69115
12.308919
508.38748
106.8507
138.4745
405.52707
194.05368
0
0
57.863997
19.315751
453.00638
3.2856037
16.120677
0
178.89646
0
119.70157
0
0
119.09435
555.97708
0
0
0
0
0
0
0
0
)

)


// ************************************************************************* //
