/*--------------------------------*- C++ -*----------------------------------*\
  =========                 |
  \\      /  F ield         | OpenFOAM: The Open Source CFD Toolbox
   \\    /   O peration     | Website:  https://openfoam.org
    \\  /    A nd           | Version:  8
     \\/     M anipulation  |
\*---------------------------------------------------------------------------*/
/*   Windows 32 and 64 bit porting by blueCAPE: http://www.bluecape.com.pt   *\
|  Based on Windows porting (2.0.x v4) by Symscape: http://www.symscape.com   |
\*---------------------------------------------------------------------------*/
FoamFile
{
    version     2.0;
    format      ascii;
    class       polyBoundaryMesh;
    location    "constant/air/polyMesh";
    object      boundary;
}
// * * * * * * * * * * * * * * * * * * * * * * * * * * * * * * * * * * * * * //

13
(
    left
    {
        type            patch;
        nFaces          0;
        startFace       15704;
    }
    right
    {
        type            patch;
        nFaces          0;
        startFace       15704;
    }
    back
    {
        type            patch;
        nFaces          0;
        startFace       15704;
    }
    front
    {
        type            patch;
        nFaces          0;
        startFace       15704;
    }
    bottom
    {
        type            wall;
        inGroups        List<word> 1(wall);
        nFaces          309;
        startFace       15704;
    }
    top
    {
        type            patch;
        nFaces          0;
        startFace       16013;
    }
    Building
    {
        type            mappedWall;
        inGroups        List<word> 
2
(
wall
mappedPatch
)
;
        nFaces          516;
        startFace       16013;
        sampleMode      nearestPatchFace;
        sampleRegion    Building;
        samplePatch     buildings_to_air;
    }
    procBoundary1to0
    {
        type            processor;
        inGroups        List<word> 1(processor);
        nFaces          106;
        startFace       16529;
        matchTolerance  0.0001;
        myProcNo        1;
        neighbProcNo    0;
    }
    procBoundary1to2
    {
        type            processor;
        inGroups        List<word> 1(processor);
        nFaces          304;
        startFace       16635;
        matchTolerance  0.0001;
        myProcNo        1;
        neighbProcNo    2;
    }
    procBoundary1to3
    {
        type            processor;
        inGroups        List<word> 1(processor);
        nFaces          307;
        startFace       16939;
        matchTolerance  0.0001;
        myProcNo        1;
        neighbProcNo    3;
    }
    procBoundary1to5
    {
        type            processor;
        inGroups        List<word> 1(processor);
        nFaces          93;
        startFace       17246;
        matchTolerance  0.0001;
        myProcNo        1;
        neighbProcNo    5;
    }
    procBoundary1to6
    {
        type            processor;
        inGroups        List<word> 1(processor);
        nFaces          17;
        startFace       17339;
        matchTolerance  0.0001;
        myProcNo        1;
        neighbProcNo    6;
    }
    procBoundary1to8
    {
        type            processor;
        inGroups        List<word> 1(processor);
        nFaces          8;
        startFace       17356;
        matchTolerance  0.0001;
        myProcNo        1;
        neighbProcNo    8;
    }
)

// ************************************************************************* //
