/*--------------------------------*- C++ -*----------------------------------*\
  =========                 |
  \\      /  F ield         | OpenFOAM: The Open Source CFD Toolbox
   \\    /   O peration     | Website:  https://openfoam.org
    \\  /    A nd           | Version:  8
     \\/     M anipulation  |
\*---------------------------------------------------------------------------*/
/*   Windows 32 and 64 bit porting by blueCAPE: http://www.bluecape.com.pt   *\
|  Based on Windows porting (2.0.x v4) by Symscape: http://www.symscape.com   |
\*---------------------------------------------------------------------------*/
FoamFile
{
    version     2.0;
    format      ascii;
    class       labelListList;
    location    "constant/vegetation";
    object      finalAgglom;
}
// * * * * * * * * * * * * * * * * * * * * * * * * * * * * * * * * * * * * * //


13
(
0()
0()
0()
0()

543
(
0
0
1
2
3
1
2
4
5
6
5
3
5
7
8
9
10
10
9
11
5
9
11
9
12
3
13
14
15
15
15
16
13
17
18
18
3
6
12
15
19
19
2
19
10
10
18
18
11
11
11
19
12
12
11
17
17
12
17
9
8
7
20
12
8
12
4
13
4
7
13
7
16
16
16
21
4
22
23
24
25
25
2
23
1
26
26
27
23
28
27
26
29
29
27
29
26
21
21
24
24
24
14
14
1
2
2
26
28
28
28
21
30
6
6
31
5
0
0
32
33
34
33
35
36
37
22
38
39
40
37
41
22
23
42
42
43
39
33
34
44
45
35
41
45
44
38
46
40
39
46
47
48
48
49
47
50
50
44
50
47
51
50
44
52
52
38
53
53
46
40
53
53
54
20
55
56
57
58
7
59
60
57
56
54
61
30
20
20
58
62
63
43
64
59
57
31
8
65
66
67
55
30
30
68
69
70
56
63
62
62
62
71
72
73
74
42
75
60
32
76
51
77
78
79
70
69
43
74
80
66
81
82
68
67
67
66
83
83
68
71
84
74
55
85
86
35
86
87
88
85
85
85
35
89
89
72
90
91
92
93
93
34
51
93
93
59
78
77
65
65
72
72
82
82
79
79
78
92
91
88
86
90
92
87
87
87
92
94
94
60
75
64
63
69
62
77
79
77
68
95
95
96
96
33
34
97
97
38
52
96
98
96
40
37
96
98
41
41
99
43
79
79
97
97
100
46
39
39
47
39
52
48
49
22
49
49
48
76
76
76
55
70
70
57
31
31
64
57
64
57
57
59
58
58
66
65
65
55
55
55
30
61
30
69
83
83
56
56
62
71
62
62
73
73
73
42
60
42
60
60
75
32
32
51
79
79
79
74
80
74
81
81
81
95
95
82
71
71
71
84
84
84
89
89
86
88
88
88
101
89
89
90
90
90
91
91
90
78
59
59
59
59
77
94
94
55
75
60
60
100
99
37
57
54
57
56
54
56
62
56
63
80
80
73
66
66
67
101
61
61
61
20
20
20
98
102
103
98
22
103
104
104
105
106
106
106
104
104
107
45
45
105
100
100
105
99
99
36
108
108
108
41
41
41
36
36
36
45
45
105
107
107
107
101
101
107
85
85
106
108
108
108
103
103
102
102
102
109
110
110
109
109
109
109
111
111
111
112
112
110
113
27
25
14
113
25
110
29
27
110
111
110
109
111
111
111
112
112
112
113
4
113
)

0()

223
(
0
1
2
3
4
5
6
7
8
9
10
11
12
13
14
15
16
17
18
19
20
21
22
23
24
25
26
27
28
29
30
31
32
33
34
35
36
37
38
39
40
41
42
43
44
45
46
47
48
49
50
51
52
53
54
55
56
57
58
59
60
61
62
63
64
65
66
67
68
69
70
71
72
73
74
75
76
77
78
79
80
81
82
83
84
85
86
87
88
89
90
91
92
93
94
95
96
97
98
99
100
101
102
103
104
105
106
107
108
109
110
111
112
113
114
115
116
117
118
119
120
121
122
123
124
125
126
127
128
129
130
131
132
133
134
135
136
137
138
139
140
141
142
143
144
145
146
147
148
149
150
151
152
153
154
155
156
157
158
159
160
161
162
163
164
165
166
167
168
169
170
171
172
173
174
175
176
177
178
179
180
181
182
183
184
185
186
187
188
189
190
191
192
193
194
195
196
197
198
199
200
201
202
203
204
205
206
207
208
209
210
211
212
213
214
215
216
217
218
219
220
221
222
)


407
(
0
1
1
2
1
3
4
0
5
5
5
5
3
3
3
3
6
4
5
5
6
4
6
2
0
7
1
8
8
9
9
8
10
3
7
7
7
3
3
3
11
11
4
0
11
2
6
11
6
10
9
2
8
12
10
8
12
12
12
12
10
6
6
0
9
10
13
14
15
16
17
18
19
18
15
14
20
14
20
21
19
22
13
18
15
15
23
13
13
19
18
14
19
19
19
20
20
21
22
17
21
17
18
22
17
18
24
25
24
26
27
25
26
27
28
28
24
28
28
24
29
30
31
32
29
33
29
29
34
24
35
36
27
27
33
33
30
26
37
25
38
39
38
26
38
27
40
41
42
43
44
45
46
47
46
32
43
32
43
48
43
44
48
40
40
40
49
49
49
50
51
50
52
53
53
45
52
51
54
54
55
56
41
57
58
59
60
61
61
61
62
44
63
64
63
64
45
65
65
65
45
66
57
67
67
68
69
69
69
69
70
31
71
62
72
72
44
47
46
47
35
38
34
33
30
34
25
35
35
35
26
36
36
35
34
30
27
37
36
33
30
38
25
38
38
35
39
26
38
35
39
39
37
37
52
45
52
51
51
51
73
73
58
59
68
58
74
75
46
46
70
46
31
46
70
46
51
49
53
56
53
75
74
58
68
58
60
60
59
59
60
75
57
75
41
41
41
68
47
70
31
62
32
55
56
40
56
42
64
73
65
50
42
50
63
42
63
42
64
49
66
66
49
66
55
55
56
56
57
57
57
74
76
77
41
67
67
77
76
77
77
74
76
76
76
54
54
76
76
78
47
78
78
79
78
47
62
79
79
79
71
71
71
61
71
71
71
72
48
72
44
48
44
72
73
45
45
80
81
80
80
80
81
82
23
23
82
82
23
81
82
83
81
16
83
16
23
83
83
21
23
82
83
16
16
82
22
)

1(0)

17
(
0
1
2
3
4
5
6
7
8
9
10
11
12
13
14
15
16
)


204
(
0
1
2
3
4
5
6
7
8
9
10
11
12
13
14
15
16
17
18
19
20
21
22
23
24
25
26
27
28
29
30
31
32
33
34
35
36
37
38
39
40
41
42
43
44
45
46
47
48
49
50
51
52
53
54
55
56
57
58
59
60
61
62
63
64
65
66
67
68
69
70
71
72
73
74
75
76
77
78
79
80
81
82
83
84
85
86
87
88
89
90
91
92
93
94
95
96
97
98
99
100
101
102
103
104
105
106
107
108
109
110
111
112
113
114
115
116
117
118
119
120
121
122
123
124
125
126
127
128
129
130
131
132
133
134
135
136
137
138
139
140
141
142
143
144
145
146
147
148
149
150
151
152
153
154
155
156
157
158
159
160
161
162
163
164
165
166
167
168
169
170
171
172
173
174
175
176
177
178
179
180
181
182
183
184
185
186
187
188
189
190
191
192
193
194
195
196
197
198
199
200
201
202
203
)


313
(
0
1
2
3
4
5
6
7
8
9
10
11
12
13
14
15
16
17
18
19
20
21
22
23
24
25
26
27
28
29
30
31
32
33
34
35
36
37
38
39
40
41
42
43
44
45
46
47
48
49
50
51
52
53
54
55
56
57
58
59
60
61
62
63
64
65
66
67
68
69
70
71
72
73
74
75
76
77
78
79
80
81
82
83
84
85
86
87
88
89
90
91
92
93
94
95
96
97
98
99
100
101
102
103
104
105
106
107
108
109
110
111
112
113
114
115
116
117
118
119
120
121
122
123
124
125
126
127
128
129
130
131
132
133
134
135
136
137
138
139
140
141
142
143
144
145
146
147
148
149
150
151
152
153
154
155
156
157
158
159
160
161
162
163
164
165
166
167
168
169
170
171
172
173
174
175
176
177
178
179
180
181
182
183
184
185
186
187
188
189
190
191
192
193
194
195
196
197
198
199
200
201
202
203
204
205
206
207
208
209
210
211
212
213
214
215
216
217
218
219
220
221
222
223
224
225
226
227
228
229
230
231
232
233
234
235
236
237
238
239
240
241
242
243
244
245
246
247
248
249
250
251
252
253
254
255
256
257
258
259
260
261
262
263
264
265
266
267
268
269
270
271
272
273
274
275
276
277
278
279
280
281
282
283
284
285
286
287
288
289
290
291
292
293
294
295
296
297
298
299
300
301
302
303
304
305
306
307
308
309
310
311
312
)

3(0 1 2)
)


// ************************************************************************* //
