/*--------------------------------*- C++ -*----------------------------------*\
  =========                 |
  \\      /  F ield         | OpenFOAM: The Open Source CFD Toolbox
   \\    /   O peration     | Website:  https://openfoam.org
    \\  /    A nd           | Version:  8
     \\/     M anipulation  |
\*---------------------------------------------------------------------------*/
/*   Windows 32 and 64 bit porting by blueCAPE: http://www.bluecape.com.pt   *\
|  Based on Windows porting (2.0.x v4) by Symscape: http://www.symscape.com   |
\*---------------------------------------------------------------------------*/
FoamFile
{
    version     2.0;
    format      ascii;
    class       scalarListList;
    location    "constant/vegetation";
    object      skyViewCoeff;
}
// * * * * * * * * * * * * * * * * * * * * * * * * * * * * * * * * * * * * * //


5
(

421
(
302
302
302
302
302
302
302
302
302
302
302
302
302
302
302
302
302
302
302
302
302
302
302
302
302
302
302
302
302
302
302
302
302
302
302
302
302
302
302
302
302
302
302
302
302
302
302
302
302
302
302
302
302
302
302
302
302
302
302
302
302
302
302
302
302
302
302
302
302
302
302
302
302
302
302
302
302
302
302
302
302
302
302
302
302
302
302
302
302
302
302
302
302
302
302
302
302
302
302
302
302
302
302
302
302
302
302
302
302
302
302
302
302
302
151
151
151
151
151
151
151
151
151
151
151
151
151
151
151
151
151
151
151
151
151
151
151
151
151
151
151
151
151
151
151
151
151
151
151
151
151
151
151
151
151
151
151
151
151
151
151
151
151
151
151
151
151
151
151
151
151
151
151
151
151
151
151
151
151
151
151
151
151
151
151
151
151
151
151
151
151
151
151
151
151
151
151
151
151
151
151
151
151
151
151
151
151
151
151
151
151
151
151
151
151
151
151
151
151
151
151
151
151
151
151
151
151
151
151
151
151
151
151
151
151
151
151
151
151
151
151
151
151
151
151
151
151
151
151
151
151
151
151
151
151
151
151
151
151
151
151
151
151
151
151
151
151
151
151
151
151
151
151
151
151
151
151
151
151
151
151
151
151
151
151
151
151
151
151
151
151
151
151
151
151
151
151
151
151
151
151
151
151
151
151
151
151
151
151
151
151
151
151
151
151
151
151
151
151
151
151
151
151
151
151
151
151
151
151
151
151
151
151
151
151
151
151
197.45696
157.0361
160.56538
166.7512
226.7551
177.78623
186.87023
204.8161
256.57839
258.99265
170.79688
240.95061
182.93801
179.20974
197.93142
183.88636
244.95458
282.08808
170.50773
156.70424
214.78398
164.52475
235.05406
262.01912
160.2534
178.33957
176.8383
153.27645
157.43022
220.80314
245.57283
208.86326
185.21026
200.73621
183.2571
158.94871
191.4373
198.74739
265.76695
237.43142
172.14996
256.90977
179.76678
183.2405
197.31974
192.57231
166.04267
163.72973
236.35838
160.87555
151.83256
199.79548
181.39417
251.64794
294.00366
164.53449
193.89364
193.8019
183.0709
171.01757
155.67355
164.66846
246.45531
247.04361
249.40123
162.00954
237.73784
200.86068
215.84049
198.8163
277.92948
164.41068
216.17162
162.6976
153.20637
178.95956
194.49274
173.92491
172.75538
172.0023
156.68929
153.16575
196.52803
159.82546
)


421
(
383
383
383
383
383
383
383
383
383
383
383
383
383
383
383
383
383
383
383
383
383
383
383
383
383
383
383
383
383
383
383
383
383
383
383
383
383
383
383
383
383
383
383
383
383
383
383
383
383
383
383
383
383
383
383
383
383
383
383
383
383
383
383
383
383
383
383
383
383
383
383
383
383
383
383
383
383
383
383
383
383
383
383
383
383
383
383
383
383
383
383
383
383
383
383
383
383
383
383
383
383
383
383
383
383
383
383
383
383
383
383
383
383
383
191.5
191.5
191.5
191.5
191.5
191.5
191.5
191.5
191.5
191.5
191.5
191.5
191.5
191.5
191.5
191.5
191.5
191.5
191.5
191.5
191.5
191.5
191.5
191.5
191.5
191.5
191.5
191.5
191.5
191.5
191.5
191.5
191.5
191.5
191.5
191.5
191.5
191.5
191.5
191.5
191.5
191.5
191.5
191.5
191.5
191.5
191.5
191.5
191.5
191.5
191.5
191.5
191.5
191.5
191.5
191.5
191.5
191.5
191.5
191.5
191.5
191.5
191.5
191.5
191.5
191.5
191.5
191.5
191.5
191.5
191.5
191.5
191.5
191.5
191.5
191.5
191.5
191.5
191.5
191.5
191.5
191.5
191.5
191.5
191.5
191.5
191.5
191.5
191.5
191.5
191.5
191.5
191.5
191.5
191.5
191.5
191.5
191.5
191.5
191.5
191.5
191.5
191.5
191.5
191.5
191.5
191.5
191.5
191.5
191.5
191.5
191.5
191.5
191.5
191.5
191.5
191.5
191.5
191.5
191.5
191.5
191.5
191.5
191.5
191.5
191.5
191.5
191.5
191.5
191.5
191.5
191.5
191.5
191.5
191.5
191.5
191.5
191.5
191.5
191.5
191.5
191.5
191.5
191.5
191.5
191.5
191.5
191.5
191.5
191.5
191.5
191.5
191.5
191.5
191.5
191.5
191.5
191.5
191.5
191.5
191.5
191.5
191.5
191.5
191.5
191.5
191.5
191.5
191.5
191.5
191.5
191.5
191.5
191.5
191.5
191.5
191.5
191.5
191.5
191.5
191.5
191.5
191.5
191.5
191.5
191.5
191.5
191.5
191.5
191.5
191.5
191.5
191.5
191.5
191.5
191.5
191.5
191.5
191.5
191.5
191.5
191.5
191.5
191.5
191.5
191.5
191.5
191.5
191.5
191.5
191.5
191.5
191.5
191.5
191.5
191.5
191.5
191.5
191.5
191.5
191.5
191.5
191.5
250.41727
199.15506
203.63093
211.47586
287.57352
225.47061
236.99105
259.75022
325.39577
328.45756
216.60664
305.57644
232.00417
227.27593
251.01899
233.20687
310.65432
357.74747
216.23994
198.73419
272.3916
208.65225
298.09836
332.29578
203.23527
226.17237
224.26845
194.38702
199.65488
280.02518
311.4384
264.88288
234.88586
254.57606
232.40884
201.58065
242.78307
252.05382
337.04881
301.11336
218.32264
325.81603
227.98237
232.38779
250.24324
244.2225
210.5773
207.64399
299.75252
204.02429
192.55586
253.38301
230.04625
319.14292
372.85894
208.66461
245.89823
245.78189
232.17269
216.88652
197.42705
208.8345
312.55756
313.30365
316.29362
205.46244
301.50196
254.73391
273.73149
252.1412
352.47347
208.50758
274.15143
206.33504
194.29815
226.95864
246.65801
220.57364
219.09043
218.13537
198.71523
194.24663
249.23919
202.69255
)


421
(
334
334
334
334
334
334
334
334
334
334
334
334
334
334
334
334
334
334
334
334
334
334
334
334
334
334
334
334
334
334
334
334
334
334
334
334
334
334
334
334
334
334
334
334
334
334
334
334
334
334
334
334
334
334
334
334
334
334
334
334
334
334
334
334
334
334
334
334
334
334
334
334
334
334
334
334
334
334
334
334
334
334
334
334
334
334
334
334
334
334
334
334
334
334
334
334
334
334
334
334
334
334
334
334
334
334
334
334
334
334
334
334
334
334
167
167
167
167
167
167
167
167
167
167
167
167
167
167
167
167
167
167
167
167
167
167
167
167
167
167
167
167
167
167
167
167
167
167
167
167
167
167
167
167
167
167
167
167
167
167
167
167
167
167
167
167
167
167
167
167
167
167
167
167
167
167
167
167
167
167
167
167
167
167
167
167
167
167
167
167
167
167
167
167
167
167
167
167
167
167
167
167
167
167
167
167
167
167
167
167
167
167
167
167
167
167
167
167
167
167
167
167
167
167
167
167
167
167
167
167
167
167
167
167
167
167
167
167
167
167
167
167
167
167
167
167
167
167
167
167
167
167
167
167
167
167
167
167
167
167
167
167
167
167
167
167
167
167
167
167
167
167
167
167
167
167
167
167
167
167
167
167
167
167
167
167
167
167
167
167
167
167
167
167
167
167
167
167
167
167
167
167
167
167
167
167
167
167
167
167
167
167
167
167
167
167
167
167
167
167
167
167
167
167
167
167
167
167
167
167
167
167
167
167
167
167
167
218.37955
173.67569
177.57893
184.4202
250.78213
196.6245
206.67104
226.51847
283.7655
286.43558
188.89457
266.4818
202.32218
198.19885
218.90429
203.37101
270.91003
311.97821
188.57477
173.30866
237.54255
181.95784
259.96045
289.78274
177.23389
197.23648
195.57614
169.51766
174.11156
244.1995
271.5938
230.99447
204.83519
222.00627
202.67507
175.79096
211.72205
219.80672
293.92768
262.58972
190.39102
284.13199
198.81491
202.65671
218.22779
212.97733
183.6366
181.07857
261.40298
177.92197
167.92078
220.96587
200.61475
278.31262
325.15636
181.96861
214.43866
214.33721
202.46914
189.13863
172.16876
182.11677
272.56978
273.22041
275.82785
179.17612
262.92861
222.14393
238.71101
219.88293
307.37896
181.83168
239.07723
179.93709
169.44016
197.92216
215.10124
192.35403
191.06058
190.22771
173.29213
169.39523
217.35219
176.76061
)


421
(
273
273
273
273
273
273
273
273
273
273
273
273
273
273
273
273
273
273
273
273
273
273
273
273
273
273
273
273
273
273
273
273
273
273
273
273
273
273
273
273
273
273
273
273
273
273
273
273
273
273
273
273
273
273
273
273
273
273
273
273
273
273
273
273
273
273
273
273
273
273
273
273
273
273
273
273
273
273
273
273
273
273
273
273
273
273
273
273
273
273
273
273
273
273
273
273
273
273
273
273
273
273
273
273
273
273
273
273
273
273
273
273
273
273
136.5
136.5
136.5
136.5
136.5
136.5
136.5
136.5
136.5
136.5
136.5
136.5
136.5
136.5
136.5
136.5
136.5
136.5
136.5
136.5
136.5
136.5
136.5
136.5
136.5
136.5
136.5
136.5
136.5
136.5
136.5
136.5
136.5
136.5
136.5
136.5
136.5
136.5
136.5
136.5
136.5
136.5
136.5
136.5
136.5
136.5
136.5
136.5
136.5
136.5
136.5
136.5
136.5
136.5
136.5
136.5
136.5
136.5
136.5
136.5
136.5
136.5
136.5
136.5
136.5
136.5
136.5
136.5
136.5
136.5
136.5
136.5
136.5
136.5
136.5
136.5
136.5
136.5
136.5
136.5
136.5
136.5
136.5
136.5
136.5
136.5
136.5
136.5
136.5
136.5
136.5
136.5
136.5
136.5
136.5
136.5
136.5
136.5
136.5
136.5
136.5
136.5
136.5
136.5
136.5
136.5
136.5
136.5
136.5
136.5
136.5
136.5
136.5
136.5
136.5
136.5
136.5
136.5
136.5
136.5
136.5
136.5
136.5
136.5
136.5
136.5
136.5
136.5
136.5
136.5
136.5
136.5
136.5
136.5
136.5
136.5
136.5
136.5
136.5
136.5
136.5
136.5
136.5
136.5
136.5
136.5
136.5
136.5
136.5
136.5
136.5
136.5
136.5
136.5
136.5
136.5
136.5
136.5
136.5
136.5
136.5
136.5
136.5
136.5
136.5
136.5
136.5
136.5
136.5
136.5
136.5
136.5
136.5
136.5
136.5
136.5
136.5
136.5
136.5
136.5
136.5
136.5
136.5
136.5
136.5
136.5
136.5
136.5
136.5
136.5
136.5
136.5
136.5
136.5
136.5
136.5
136.5
136.5
136.5
136.5
136.5
136.5
136.5
136.5
136.5
136.5
136.5
136.5
136.5
136.5
136.5
136.5
136.5
136.5
136.5
136.5
136.5
136.5
136.5
136.5
136.5
136.5
136.5
178.49586
141.95648
145.14685
150.73867
204.98061
160.71404
168.92573
185.14833
231.94007
234.12249
154.39586
217.81297
165.37112
162.00086
178.92476
166.2284
221.43245
255.00016
154.13447
141.65648
194.15903
148.72602
212.48264
236.85835
144.86483
161.21425
159.85714
138.55785
142.31274
199.60019
221.99134
188.80685
167.42517
181.46022
165.65956
143.68543
173.05425
179.66238
240.24628
214.63171
155.61901
232.23962
162.5044
165.64456
178.37181
174.08027
150.09818
148.00733
213.66172
145.42724
137.25261
180.60982
163.97553
227.48307
265.77152
148.73482
175.27472
175.19179
165.49124
154.59535
140.72476
148.85592
222.78907
223.32088
225.45211
146.45234
214.90871
181.57273
195.11409
179.72467
251.24088
148.6229
195.41342
147.07432
138.4945
161.7747
175.81629
157.22351
156.16629
155.48552
141.64297
138.45778
177.65613
144.47798
)


421
(
230
230
230
230
230
230
230
230
230
230
230
230
230
230
230
230
230
230
230
230
230
230
230
230
230
230
230
230
230
230
230
230
230
230
230
230
230
230
230
230
230
230
230
230
230
230
230
230
230
230
230
230
230
230
230
230
230
230
230
230
230
230
230
230
230
230
230
230
230
230
230
230
230
230
230
230
230
230
230
230
230
230
230
230
230
230
230
230
230
230
230
230
230
230
230
230
230
230
230
230
230
230
230
230
230
230
230
230
230
230
230
230
230
230
115
115
115
115
115
115
115
115
115
115
115
115
115
115
115
115
115
115
115
115
115
115
115
115
115
115
115
115
115
115
115
115
115
115
115
115
115
115
115
115
115
115
115
115
115
115
115
115
115
115
115
115
115
115
115
115
115
115
115
115
115
115
115
115
115
115
115
115
115
115
115
115
115
115
115
115
115
115
115
115
115
115
115
115
115
115
115
115
115
115
115
115
115
115
115
115
115
115
115
115
115
115
115
115
115
115
115
115
115
115
115
115
115
115
115
115
115
115
115
115
115
115
115
115
115
115
115
115
115
115
115
115
115
115
115
115
115
115
115
115
115
115
115
115
115
115
115
115
115
115
115
115
115
115
115
115
115
115
115
115
115
115
115
115
115
115
115
115
115
115
115
115
115
115
115
115
115
115
115
115
115
115
115
115
115
115
115
115
115
115
115
115
115
115
115
115
115
115
115
115
115
115
115
115
115
115
115
115
115
115
115
115
115
115
115
115
115
115
115
115
115
115
115
150.38113
119.59703
122.28489
126.99595
172.69428
135.40011
142.31838
155.98577
195.40738
197.24606
130.0771
183.50543
139.32365
136.48424
150.74247
140.0459
186.55481
214.8353
129.85688
119.34429
163.5772
125.30031
179.01468
199.55099
122.04729
135.82153
134.67818
116.73372
119.89718
168.16133
187.02567
159.06805
141.05417
152.87857
139.56666
121.05366
145.79662
151.36391
202.40529
180.82525
131.10759
195.65976
136.90847
139.55402
150.27662
146.66103
126.45634
124.69482
180.00804
122.52111
115.63407
152.16212
138.14788
191.6524
223.91007
125.30773
147.66734
147.59748
139.42486
130.24517
118.55933
125.40975
187.69775
188.14579
189.94134
123.38475
181.05862
152.97337
164.38183
151.41639
211.66814
125.21343
164.63402
123.90877
116.68035
136.2937
148.12361
132.45937
131.56867
130.99513
119.3329
116.64941
149.67366
121.72138
)

)


// ************************************************************************* //
