/*--------------------------------*- C++ -*----------------------------------*\
  =========                 |
  \\      /  F ield         | OpenFOAM: The Open Source CFD Toolbox
   \\    /   O peration     | Website:  https://openfoam.org
    \\  /    A nd           | Version:  8
     \\/     M anipulation  |
\*---------------------------------------------------------------------------*/
/*   Windows 32 and 64 bit porting by blueCAPE: http://www.bluecape.com.pt   *\
|  Based on Windows porting (2.0.x v4) by Symscape: http://www.symscape.com   |
\*---------------------------------------------------------------------------*/
FoamFile
{
    version     2.0;
    format      ascii;
    class       scalarListList;
    location    "constant/air";
    object      divqrsw;
}
// * * * * * * * * * * * * * * * * * * * * * * * * * * * * * * * * * * * * * //


5
(

2268
(
0
0
0
0
0
0
0
0
0
0
0
0
0
0
0
0
0
0
-65.87266
0
0
0
0
0
0
0
0
0
0
0
0
0
0
0
0
0
0
0
0
0
0
0
0
0
0
0
0
0
0
0
0
0
0
0
0
0
0
0
0
0
0
0
0
0
0
0
0
0
0
0
0
0
0
0
0
0
0
0
0
0
0
0
0
0
0
0
0
0
0
0
0
0
0
0
0
-75.196954
0
0
0
0
0
0
0
0
0
0
0
0
0
0
0
0
0
0
0
0
0
0
0
0
0
0
0
0
0
0
0
0
0
0
0
0
0
0
0
0
0
0
0
0
0
0
0
0
0
0
0
0
0
0
0
0
0
0
0
0
0
0
0
0
0
0
0
0
0
0
0
0
0
0
0
0
0
0
0
0
0
0
0
0
0
0
0
0
0
0
0
0
0
0
0
0
0
0
0
0
0
0
0
0
0
0
0
0
0
0
0
0
0
0
0
0
0
0
0
0
0
0
0
0
0
0
0
0
0
0
0
0
0
0
0
0
0
0
0
0
0
0
0
0
0
0
0
0
0
0
0
0
0
0
0
0
0
0
0
0
0
0
0
0
0
0
0
0
0
0
0
0
0
0
0
0
0
0
0
0
0
0
0
0
0
0
0
0
0
0
0
0
0
0
0
0
0
0
0
0
0
0
0
0
0
0
0
0
0
0
0
0
0
0
0
0
0
0
0
0
0
0
0
0
0
0
0
0
0
0
0
0
0
0
0
0
0
0
0
0
0
0
0
0
0
0
0
0
0
0
0
0
0
0
0
0
0
0
0
0
0
0
0
0
0
0
0
0
0
0
0
0
0
0
0
0
0
0
0
0
0
0
0
0
0
0
0
-78.365033
0
0
0
0
-84.333227
0
0
0
0
0
0
0
0
0
0
0
0
0
0
0
0
0
0
0
0
0
0
0
0
0
0
0
0
0
0
0
0
0
0
0
0
0
0
0
0
0
0
0
-106.56092
0
-134.51121
0
-90.867858
-69.160812
0
0
0
-58.620196
0
0
-94.257826
-103.36808
0
-66.985984
0
0
0
0
0
0
0
0
0
0
0
0
0
0
0
0
0
0
0
0
0
0
0
0
0
0
0
0
0
0
0
0
0
0
0
0
0
0
0
0
0
0
0
0
0
0
0
0
0
0
0
0
0
0
0
0
0
0
0
0
0
0
0
0
0
0
0
0
0
0
0
0
0
0
0
0
0
0
0
0
0
0
0
0
0
0
0
0
0
0
0
0
0
0
0
0
0
0
0
0
0
0
0
0
0
0
0
0
0
0
0
0
0
0
0
0
0
0
0
0
0
0
0
0
0
0
0
0
0
0
0
0
0
0
0
0
0
0
0
0
0
0
0
0
0
0
0
0
0
0
0
0
0
0
0
0
0
0
0
0
0
0
0
0
0
0
0
0
0
0
0
0
0
0
0
0
0
0
0
0
0
0
0
0
0
0
0
0
0
0
0
0
0
0
0
0
0
0
0
0
0
0
0
0
0
0
0
0
0
0
0
0
0
0
0
0
0
0
0
0
0
0
0
0
0
0
0
0
0
0
0
0
0
0
0
0
0
0
0
0
0
0
0
0
0
0
0
0
0
0
0
0
0
0
0
0
0
0
0
-150.61237
0
-199.90021
-124.93401
0
-200.93836
0
0
0
0
0
0
0
0
0
0
0
0
0
0
0
0
0
0
0
0
0
0
0
0
0
0
0
0
0
0
0
0
0
0
0
0
0
0
0
0
0
0
0
0
0
0
0
0
0
0
0
0
0
0
0
0
0
0
0
0
0
0
0
0
0
0
0
0
0
0
0
0
0
0
0
0
0
0
0
0
0
0
0
0
0
0
0
0
0
0
0
0
0
0
0
0
0
0
0
0
0
0
0
0
0
0
0
0
0
0
0
0
0
0
0
0
0
0
0
0
0
0
0
0
0
0
0
0
0
0
0
0
0
0
0
0
0
0
0
0
0
0
0
0
0
0
0
0
0
0
0
0
0
0
0
0
0
0
0
0
0
0
0
0
0
0
0
0
0
0
0
0
0
0
0
0
-80.293942
0
0
0
0
0
0
0
0
0
0
0
-87.286558
0
0
-75.230099
-88.638483
0
-75.287677
0
0
0
0
0
0
0
-82.763621
0
-78.225772
0
-64.610503
0
-97.903894
0
0
-190.01925
0
0
0
0
0
0
0
0
0
0
0
0
0
0
0
0
0
0
0
0
0
0
0
0
0
0
0
0
0
0
0
0
0
0
0
0
0
0
0
0
0
0
0
0
0
0
0
0
0
0
0
0
0
0
0
0
0
0
0
0
0
0
0
0
0
0
0
0
0
0
0
0
0
0
0
0
0
0
0
0
0
0
0
0
0
0
0
0
0
0
0
0
0
0
0
0
0
0
0
0
0
0
-97.395187
0
-81.200581
0
-82.519051
-96.583915
0
-137.22416
0
-96.059479
0
-117.59897
-114.24227
0
0
0
0
0
0
0
0
0
0
0
0
0
0
0
0
0
0
0
0
0
0
0
0
0
0
0
0
0
0
0
0
0
0
0
0
-99.343125
-60.924867
0
-121.09572
-93.457648
-134.01449
-82.336043
0
0
0
-113.49774
0
0
-107.45743
-123.01361
0
-81.821113
0
-146.54253
-76.795086
0
0
0
0
0
0
0
-101.21855
-134.49199
-88.750825
-146.75288
-83.793834
-147.51809
-140.33663
-84.053792
0
0
0
0
0
-67.056166
0
0
0
0
0
-137.34655
-89.594631
0
0
0
0
0
0
-56.761662
0
0
0
0
-109.10952
0
-68.312354
0
0
0
0
0
0
0
0
0
0
0
0
0
0
0
0
0
0
0
0
-113.06288
-134.98805
-131.60748
-106.62859
-128.86621
-131.48455
-123.55377
-110.29117
0
0
-115.87845
-113.18487
-111.89876
0
-131.88127
-144.47158
-118.2256
-143.55938
-126.8518
-127.1178
-151.151
0
-108.42463
0
0
-110.33367
-93.01646
0
-126.30104
-98.058026
-129.36041
-104.79577
-128.793
-122.88309
-112.69352
-59.204168
-47.91164
0
-42.365721
-74.612159
-59.680195
-60.90222
-30.822961
0
-40.832932
0
-45.585362
-28.599178
0
0
0
-35.251843
0
0
-45.655717
0
-39.931389
-66.608896
-50.292895
-43.334554
-56.344657
-35.800002
-52.172955
0
0
0
0
0
-55.224258
0
0
0
0
0
0
-45.111462
0
-80.571912
-121.0672
-106.03535
-93.588902
-89.054686
-103.86167
-77.565418
-67.659337
0
-41.196938
0
-49.007986
-56.088676
0
-75.753357
-76.896437
-77.943443
-50.711172
-61.860523
-88.675699
-62.943907
-67.332823
0
-86.557582
-87.737132
0
-71.383288
0
0
0
0
-155.2653
0
-201.36838
0
0
0
0
0
0
-187.16163
0
0
0
0
-132.88125
0
-203.69347
0
0
0
0
0
0
0
0
0
0
0
0
0
0
0
0
0
0
0
0
0
0
0
0
0
0
0
0
0
0
0
0
0
0
0
0
0
0
0
0
0
0
0
0
0
0
0
0
0
0
0
0
0
-187.41057
-173.43454
-158.82601
-166.38171
-178.72362
-185.08795
-170.91586
-110.77709
0
0
-114.04303
-112.13531
-112.47892
0
-194.3501
-186.44943
-199.65748
-178.94819
-177.06063
-194.17196
-188.65698
-154.75405
0
0
-153.28344
-133.17838
0
-173.52882
-165.38547
-176.03985
-184.84945
-197.06107
-165.80659
-176.36697
-187.40399
0
0
0
0
0
0
0
0
0
0
0
0
0
0
0
0
0
0
0
0
0
0
0
0
0
0
0
0
0
0
0
0
-76.672034
-90.553751
-92.870862
0
0
-80.271369
0
0
0
0
0
0
0
-71.181396
0
-61.332238
-65.269801
0
-76.576385
0
0
0
0
-81.222746
0
-96.372186
-93.607822
0
-83.680655
0
0
0
0
0
0
0
0
-85.474636
0
-101.51742
-95.598839
0
-86.717477
0
0
0
0
0
0
0
0
0
0
0
0
0
0
0
0
-109.29402
0
0
0
0
0
0
-64.987895
0
0
0
0
0
-138.37384
-73.012599
-127.79797
0
-74.375253
-124.48147
-59.912818
0
0
0
0
0
0
0
0
-112.3872
0
0
0
0
0
0
-104.63993
0
0
0
0
0
-168.73796
-160.52106
-132.78456
0
-141.3379
-114.57606
-102.38267
0
0
0
0
0
0
0
0
-113.24779
-112.1841
-109.53842
0
0
0
-143.79625
-119.63717
-126.91097
-132.31904
-150.02328
-129.19096
-150.69156
-127.28757
-105.10146
-122.34268
-122.06507
-87.958379
-121.57492
-108.20541
-120.06169
-83.843683
0
0
0
-116.63133
0
0
0
0
0
0
0
0
-145.13277
-174.62938
0
0
-150.67584
0
-164.99628
0
-33.826099
0
0
0
0
0
0
-29.684936
0
0
0
0
0
-44.462279
-42.315365
-33.149789
-30.306467
-54.121043
-37.882667
-41.074771
0
0
0
0
0
0
0
-97.969668
-92.711497
-79.355139
-89.782251
-126.62905
-105.81562
-114.0196
0
-38.132223
-47.049966
-48.591209
0
-35.786033
0
-80.996338
-51.733752
-63.739349
-68.901115
-69.959279
-87.308195
-53.521117
-84.661481
-74.243319
0
0
-102.79566
-61.899666
0
0
0
0
0
0
0
0
-115.0435
-161.76434
0
0
-133.88173
0
-148.46456
0
0
0
0
0
0
0
-173.59154
-171.04394
-186.04677
-186.99924
-170.39643
-183.64316
-180.13231
0
-114.33387
-113.69865
-102.70829
0
0
0
-189.35338
-179.31147
-194.32159
-178.93018
-173.32925
-151.61281
-180.22836
-164.22871
-143.11255
0
0
0
-172.51903
0
0
0
0
0
0
0
0
-192.5251
-195.0572
0
0
-199.43771
-197.34954
0
0
-112.38711
0
0
0
0
0
0
-132.2809
0
0
0
0
0
-157.70424
-170.04847
-130.69202
-82.862729
-140.28169
-100.57554
-123.59065
0
0
0
0
0
0
0
-125.5948
-158.55948
-156.01892
-170.14962
-151.21052
-142.09142
-174.27644
0
-124.20786
-114.23827
-96.996729
0
-87.435199
0
-182.21973
-182.41171
-174.90021
-173.00961
-170.54005
-176.53906
-151.49412
-173.26704
-134.94961
0
0
-172.79701
-118.05674
0
0
0
0
0
0
0
0
-188.30756
-181.4248
0
0
-169.9541
-200.09096
0
0
0
0
0
0
0
0
0
0
0
0
0
0
0
-89.540811
-93.621694
-87.726183
-114.74022
-76.153233
-98.625056
-105.87814
-145.13958
-117.12357
-133.75533
-149.45669
-125.47021
-142.52335
-153.9567
0
0
0
0
0
0
0
0
0
0
0
0
0
0
0
0
0
0
0
0
0
0
0
0
0
0
0
0
0
0
0
0
0
0
0
0
0
0
0
0
0
0
0
0
0
0
0
0
0
0
0
0
0
0
0
0
0
0
0
0
0
0
0
0
0
0
0
0
0
0
0
0
0
0
0
0
0
0
0
0
0
0
0
0
0
0
0
0
0
0
0
0
0
0
0
0
0
0
0
0
0
0
0
0
0
0
0
0
0
0
0
0
0
0
0
0
0
0
0
0
0
0
0
0
0
0
0
0
0
0
0
0
0
0
0
0
0
0
0
0
0
0
0
0
0
0
0
0
0
0
0
0
0
0
0
0
0
0
0
0
0
0
0
0
0
0
0
0
0
0
0
0
0
0
0
0
0
0
0
0
0
0
0
0
0
0
0
0
0
0
0
0
0
0
0
0
0
0
0
0
0
0
0
0
0
0
0
0
0
0
0
0
0
0
0
0
0
0
0
0
0
0
0
0
0
0
0
0
0
0
0
0
0
0
0
0
0
0
0
0
0
0
0
0
0
0
0
0
0
0
0
0
0
0
0
0
0
0
0
0
0
0
0
0
0
0
0
0
0
0
0
0
0
0
0
0
0
0
0
0
0
0
0
0
0
0
0
0
0
0
0
0
0
0
0
0
0
0
0
0
0
0
0
0
0
0
0
0
0
0
0
0
0
0
0
0
0
0
0
0
0
0
0
0
0
0
0
0
0
0
0
0
0
0
0
0
0
0
0
0
0
0
0
0
0
0
0
0
0
0
0
0
0
0
0
0
0
0
0
0
0
0
0
0
0
0
0
0
0
0
0
0
0
0
0
0
0
0
0
0
0
0
0
0
0
0
0
0
0
0
0
0
0
0
0
0
0
0
0
0
0
0
0
0
0
0
0
0
0
0
0
0
0
0
0
0
0
0
0
0
0
0
0
0
0
0
0
0
0
0
0
0
0
0
0
0
0
0
0
0
0
0
0
0
0
0
0
0
0
0
0
0
0
0
0
0
0
0
0
0
0
0
0
0
0
0
0
0
0
0
0
0
0
0
0
0
0
0
0
0
0
0
0
0
0
0
0
0
0
0
0
0
)


2268
(
0
0
0
0
0
0
0
0
0
0
0
0
0
0
0
0
0
0
-66.682037
0
0
0
0
0
0
0
0
0
0
0
0
0
0
0
0
0
0
0
0
0
0
0
0
0
0
0
0
0
0
0
0
0
0
0
0
0
0
0
0
0
0
0
0
0
0
0
0
0
0
0
0
0
0
0
0
0
0
0
0
0
0
0
0
0
0
0
0
0
0
0
0
0
0
0
0
-72.995401
0
0
0
0
0
0
0
0
0
0
0
0
0
0
0
0
0
0
0
0
0
0
0
0
0
0
0
0
0
0
0
0
0
0
0
0
0
0
0
0
0
0
0
0
0
0
0
0
0
0
0
0
0
0
0
0
0
0
0
0
0
0
0
0
0
0
0
0
0
0
0
0
0
0
0
0
0
0
0
0
0
0
0
0
0
0
0
0
0
0
0
0
0
0
0
0
0
0
0
0
0
0
0
0
0
0
0
0
0
0
0
0
0
0
0
0
0
0
0
0
0
0
0
0
0
0
0
0
0
0
0
0
0
0
0
0
0
0
0
0
0
0
0
0
0
0
0
0
0
0
0
0
0
0
0
0
0
0
0
0
0
0
0
0
0
0
0
0
0
0
0
0
0
0
0
0
0
0
0
0
0
0
0
0
0
0
0
0
0
0
0
0
0
0
0
0
0
0
0
0
0
0
0
0
0
0
0
0
0
0
0
0
0
0
0
0
0
0
0
0
0
0
0
0
0
0
0
0
0
0
0
0
0
0
0
0
0
0
0
0
0
0
0
0
0
0
0
0
0
0
0
0
0
0
0
0
0
0
0
0
0
0
0
0
0
0
0
0
0
0
0
0
0
0
0
0
0
0
0
0
0
0
0
0
0
0
0
0
0
0
0
0
-80.152156
0
0
0
0
0
0
0
0
0
0
0
0
0
0
0
0
0
0
0
0
0
0
0
0
0
0
0
0
0
0
0
0
0
0
0
0
0
0
0
0
0
0
0
0
0
-119.45529
0
-91.732379
0
0
0
0
-59.129602
0
0
0
-97.780409
0
-65.751419
0
0
0
0
0
0
0
0
0
0
0
0
0
0
0
0
0
0
0
0
0
0
0
0
0
0
0
0
0
0
0
0
0
0
0
0
0
0
0
0
0
0
0
0
0
0
0
0
0
0
0
0
0
0
0
0
0
0
0
0
0
0
0
0
0
0
0
0
0
0
0
0
0
0
0
0
0
0
0
0
0
0
0
0
0
0
0
0
0
0
0
0
0
0
0
0
0
0
0
0
0
0
0
0
0
0
0
0
0
0
0
0
0
0
0
0
0
0
0
0
0
0
0
0
0
0
0
0
0
0
0
0
0
0
0
0
0
0
0
0
0
0
0
0
0
0
0
0
0
0
0
0
0
0
0
0
0
0
0
0
0
0
0
0
0
0
0
0
0
0
0
0
0
0
0
0
0
0
0
0
0
0
0
0
0
0
0
0
0
0
0
0
0
0
0
0
0
0
0
0
0
0
0
0
0
0
0
0
0
0
0
0
0
0
0
0
0
0
0
0
0
0
0
0
0
0
0
0
0
0
0
0
0
0
0
0
0
0
0
0
0
0
0
0
0
0
0
0
0
0
0
0
0
0
0
0
0
0
0
-130.1787
0
-178.2145
-113.8545
0
-163.62477
0
0
0
0
0
0
0
0
0
0
0
0
0
0
0
0
0
0
0
0
0
0
0
0
0
0
0
0
0
0
0
0
0
0
0
0
0
0
0
0
0
0
0
0
0
0
0
0
0
0
0
0
0
0
0
0
0
0
0
0
0
0
0
0
0
0
0
0
0
0
0
0
0
0
0
0
0
0
0
0
0
0
0
0
0
0
0
0
0
0
0
0
0
0
0
0
0
0
0
0
0
0
0
0
0
0
0
0
0
0
0
0
0
0
0
0
0
0
0
0
0
0
0
0
0
0
0
0
0
0
0
0
0
0
0
0
0
0
0
0
0
0
0
0
0
0
0
0
0
0
0
0
0
0
0
0
0
0
0
0
0
0
0
0
0
0
0
0
0
0
0
0
0
0
0
0
-70.892012
0
0
0
0
0
0
0
0
0
0
0
-69.50774
0
0
-78.698985
-65.777424
0
-82.740612
0
0
0
0
0
0
0
-96.175544
0
-82.896707
0
-67.007028
0
-112.34192
0
0
-176.28423
0
0
0
0
0
0
0
0
0
0
0
0
0
0
0
0
0
0
0
0
0
0
0
0
0
0
0
0
0
0
0
0
0
0
0
0
0
0
0
0
0
0
0
0
0
0
0
0
0
0
0
0
0
0
0
0
0
0
0
0
0
0
0
0
0
0
0
0
0
0
0
0
0
0
0
0
0
0
0
0
0
0
0
0
0
0
0
0
0
0
0
0
0
0
0
0
0
0
0
0
0
0
-101.47228
0
-93.393647
0
-97.514933
-101.65454
0
-150.42216
0
-96.74228
0
-132.34147
-113.29222
0
0
0
0
0
0
0
0
0
0
0
0
0
0
0
0
0
0
0
0
0
0
0
0
0
0
0
0
0
0
0
0
0
0
0
0
0
0
0
0
-93.658001
-93.091088
0
0
0
0
-78.558965
0
0
-74.426274
-80.80809
0
-53.74699
0
-76.176968
-63.378011
0
0
0
0
0
0
0
-62.873147
-84.783408
-89.268824
-89.646053
-67.053588
-82.345512
-94.033356
-76.581318
0
0
0
0
0
0
0
0
0
0
0
-108.1989
-83.785751
0
0
0
0
0
0
-49.407821
0
0
0
0
-83.95442
0
-56.243749
0
0
0
0
0
0
0
0
0
0
0
0
0
0
0
0
0
0
0
0
0
0
-136.13239
-112.32802
-113.07974
0
-125.98305
-61.619727
0
0
-68.653346
-64.044571
-61.923793
0
-148.84534
-146.18786
-111.17727
-133.64265
-143.23186
-122.94333
-150.24041
0
-62.609154
0
0
-60.899698
0
0
-126.03058
-101.26786
-101.83432
-102.02826
-106.65718
-117.87504
-112.8758
0
0
0
0
-77.671162
0
-73.834763
-39.731799
0
-41.014479
0
-48.954552
-32.163804
0
0
0
-41.977674
0
0
-61.082439
0
-52.377543
-69.816093
-50.350742
-49.418683
-60.056816
-41.076865
-64.151293
0
0
0
0
0
-68.924968
0
0
0
0
0
0
0
0
0
0
0
-111.1197
-93.347093
-110.4243
-92.825093
-83.38702
0
-49.082272
0
-53.594364
-72.983361
0
-84.709244
-78.077079
-74.904514
-56.474897
-62.217211
-91.192328
-74.275546
0
0
0
-115.18711
0
-91.362391
0
0
0
0
-117.36618
0
-168.59582
0
0
0
0
0
0
-165.85068
0
0
0
0
-98.204138
0
-158.86203
0
0
0
0
0
0
0
0
0
0
0
0
0
0
0
0
0
0
0
0
0
0
0
0
0
0
0
0
0
0
0
0
0
0
0
0
0
0
0
0
0
0
0
0
0
0
0
0
0
0
0
0
0
-152.12403
-147.27544
-147.88518
-143.64403
-155.16383
-148.12051
-163.0269
-101.22241
0
0
-96.039923
-89.719246
-102.54616
0
-152.10727
-159.30568
-188.9465
-154.70714
-154.56701
-146.85341
-174.48323
-166.57675
0
0
-141.54365
-132.10423
0
-154.53364
-155.8342
-143.85362
-151.12441
-174.52815
-134.69413
-160.61047
-164.25377
0
0
0
0
0
0
0
0
0
0
0
0
0
0
0
0
0
0
0
0
0
0
0
0
0
0
0
0
0
0
0
0
-74.82747
-63.289012
-61.155854
0
0
-72.283103
0
0
0
0
0
0
0
-57.000227
0
-47.08217
-37.672347
0
-48.624816
0
0
0
0
-89.318782
0
-102.38188
-101.56279
0
-86.885156
0
0
0
0
0
0
0
0
-63.499596
0
-80.950626
-70.961747
0
-60.037502
0
0
0
0
0
0
0
0
0
0
0
0
0
0
0
0
-74.090022
0
0
0
0
0
0
-43.937632
0
0
0
0
0
-82.333092
-57.010432
-77.490064
0
-60.456284
-71.790297
-46.804684
0
0
0
0
0
0
0
0
-97.178346
0
0
0
0
0
0
-77.742929
0
0
0
0
0
-143.47691
-143.11899
-119.54858
0
-141.85199
-113.5964
-102.96484
0
0
0
0
0
0
0
0
-68.526356
-61.100939
-59.081761
0
0
0
-144.7746
-101.99628
-134.47919
-127.85311
-107.59122
-98.185142
-146.56891
-95.502131
-94.239655
-111.40977
-105.82425
-74.877708
-85.806814
-88.412795
-99.660256
-66.392839
0
0
0
-84.08111
0
0
0
0
0
0
0
0
-123.28562
-107.91575
0
0
-98.10943
0
-144.93185
0
-31.964596
0
0
0
0
0
0
-29.201915
0
0
0
0
0
-41.243401
-38.022162
-31.104224
-22.356558
-39.596085
-31.89471
-28.771009
0
0
0
0
0
0
0
-73.337507
-73.851609
-62.403985
-58.280522
-84.370174
-68.169204
-77.377523
0
-34.45936
-40.48874
-28.890505
0
-23.719326
0
-63.394719
-45.49075
-52.871204
-44.100654
-46.964357
-54.755416
-35.56707
-46.701918
-41.36611
0
0
-52.9215
-31.660021
0
0
0
0
0
0
0
0
-64.838408
-87.328374
0
0
-69.005759
0
-86.623518
0
0
0
0
0
0
0
-143.32506
-134.04055
-146.73643
-147.56566
-118.05344
-145.86617
-134.62974
0
-95.235686
-102.22588
-104.3851
0
0
0
-154.3112
-146.17431
-145.21787
-149.28175
-162.24252
-134.84594
-157.708
-118.56529
-110.83231
0
0
0
-125.85617
0
0
0
0
0
0
0
0
-130.83045
-116.8305
0
0
-142.79579
-123.53238
0
0
-97.621012
0
0
0
0
0
0
-105.37401
0
0
0
0
0
-146.47197
-139.69449
-130.19206
-88.836201
-141.21833
-110.22078
-115.24787
0
0
0
0
0
0
0
-83.765106
-120.60534
-105.35278
-114.36981
-102.86738
-97.999115
-127.10027
0
-115.2008
-101.41966
-82.723279
0
-89.419643
0
-143.23401
-138.752
-125.73313
-128.87873
-164.51701
-151.13526
-138.30265
-106.91197
-110.50848
0
0
-123.31841
-89.579994
0
0
0
0
0
0
0
0
-115.77187
-106.87903
0
0
-110.86384
-121.66069
0
0
0
0
0
0
0
0
0
0
0
0
0
0
0
-96.248303
-87.088334
-86.566492
-116.50236
-74.891975
-103.46182
-105.93225
-142.4994
-101.66909
-133.28396
-128.97288
-123.06421
-118.04557
-149.83038
0
0
0
0
0
0
0
0
0
0
0
0
0
0
0
0
0
0
0
0
0
0
0
0
0
0
0
0
0
0
0
0
0
0
0
0
0
0
0
0
0
0
0
0
0
0
0
0
0
0
0
0
0
0
0
0
0
0
0
0
0
0
0
0
0
0
0
0
0
0
0
0
0
0
0
0
0
0
0
0
0
0
0
0
0
0
0
0
0
0
0
0
0
0
0
0
0
0
0
0
0
0
0
0
0
0
0
0
0
0
0
0
0
0
0
0
0
0
0
0
0
0
0
0
0
0
0
0
0
0
0
0
0
0
0
0
0
0
0
0
0
0
0
0
0
0
0
0
0
0
0
0
0
0
0
0
0
0
0
0
0
0
0
0
0
0
0
0
0
0
0
0
0
0
0
0
0
0
0
0
0
0
0
0
0
0
0
0
0
0
0
0
0
0
0
0
0
0
0
0
0
0
0
0
0
0
0
0
0
0
0
0
0
0
0
0
0
0
0
0
0
0
0
0
0
0
0
0
0
0
0
0
0
0
0
0
0
0
0
0
0
0
0
0
0
0
0
0
0
0
0
0
0
0
0
0
0
0
0
0
0
0
0
0
0
0
0
0
0
0
0
0
0
0
0
0
0
0
0
0
0
0
0
0
0
0
0
0
0
0
0
0
0
0
0
0
0
0
0
0
0
0
0
0
0
0
0
0
0
0
0
0
0
0
0
0
0
0
0
0
0
0
0
0
0
0
0
0
0
0
0
0
0
0
0
0
0
0
0
0
0
0
0
0
0
0
0
0
0
0
0
0
0
0
0
0
0
0
0
0
0
0
0
0
0
0
0
0
0
0
0
0
0
0
0
0
0
0
0
0
0
0
0
0
0
0
0
0
0
0
0
0
0
0
0
0
0
0
0
0
0
0
0
0
0
0
0
0
0
0
0
0
0
0
0
0
0
0
0
0
0
0
0
0
0
0
0
0
0
0
0
0
0
0
0
0
0
0
0
0
0
0
0
0
0
0
0
0
0
0
0
0
0
0
0
0
0
0
0
0
0
0
0
0
0
0
0
0
0
0
0
0
0
0
0
0
0
0
0
0
0
0
0
0
0
0
0
0
0
0
0
0
)


2268
(
0
0
0
0
0
0
0
0
0
0
0
0
0
0
0
0
0
0
0
0
0
0
0
0
0
0
0
0
0
0
0
0
0
0
0
0
0
0
0
0
0
0
0
0
0
0
0
0
0
0
0
0
0
0
0
0
0
0
0
0
0
0
0
0
0
0
0
0
0
0
0
0
0
0
0
0
0
0
0
0
0
0
0
0
0
0
0
0
0
0
0
0
0
0
0
0
0
0
0
0
0
0
0
0
0
0
0
0
0
0
0
0
0
0
0
0
0
0
0
0
0
0
0
0
0
0
0
0
0
0
0
0
0
0
0
0
0
0
0
0
0
0
0
0
0
0
0
0
0
0
0
0
0
0
0
0
0
0
0
0
0
0
0
0
0
0
0
0
0
0
0
0
0
0
0
0
0
0
0
0
0
0
0
0
0
0
0
0
0
0
0
0
0
0
0
0
0
0
0
0
0
0
0
0
0
0
0
0
0
0
0
0
0
0
0
0
0
0
0
0
0
0
0
0
0
0
0
0
0
0
0
0
0
0
0
0
0
0
0
0
0
0
0
0
0
0
0
0
0
0
0
0
0
0
0
0
0
0
0
0
0
0
0
0
0
0
0
0
0
0
0
0
0
0
0
0
0
0
0
0
0
0
0
0
0
0
0
0
0
0
0
0
0
0
0
0
0
0
0
0
0
0
0
0
0
0
0
0
0
0
0
0
0
0
0
0
0
0
0
0
0
0
0
0
0
0
0
0
0
0
0
0
0
0
0
0
0
0
0
0
0
0
0
0
0
0
0
0
0
0
0
0
0
0
0
0
0
0
0
0
0
0
0
0
0
0
0
0
0
0
0
0
0
0
0
0
0
0
0
0
0
0
0
0
0
0
0
0
0
0
0
0
0
0
0
0
0
0
0
0
0
0
0
0
0
0
0
0
0
0
0
0
0
0
0
0
0
0
0
0
0
0
0
0
0
0
0
0
0
0
0
0
0
0
0
0
0
0
0
0
0
0
0
0
0
0
0
0
0
0
0
0
0
0
0
0
0
0
0
0
0
0
0
0
0
0
0
0
0
0
0
0
0
0
0
0
0
0
0
0
0
0
0
0
0
0
0
0
0
0
0
0
0
0
0
0
0
0
0
0
0
0
0
0
0
0
0
0
0
0
0
0
0
0
0
0
0
0
0
0
0
0
0
0
0
0
0
0
0
0
0
0
0
0
0
0
0
0
0
0
0
0
0
0
0
0
0
0
0
0
0
0
0
0
0
0
0
0
0
0
0
0
0
0
0
0
0
0
0
0
0
0
0
0
0
0
0
0
0
0
0
0
0
0
0
0
0
0
0
0
0
0
0
0
0
0
0
0
0
0
0
0
0
0
0
0
0
0
0
0
0
0
0
0
0
0
0
0
0
0
0
0
0
0
0
0
0
0
0
0
0
0
0
0
0
0
0
0
0
0
0
0
0
0
0
0
0
0
0
0
0
0
0
0
0
0
0
0
0
0
0
0
0
0
0
0
0
0
0
0
0
0
0
0
0
0
0
0
0
0
0
0
0
0
0
0
0
0
0
0
0
0
0
0
0
0
0
0
0
0
0
0
0
0
0
0
0
0
0
-175.40677
0
0
-176.11659
0
0
0
0
0
0
0
0
0
0
0
0
0
0
0
0
0
0
0
0
0
0
0
0
0
0
0
0
0
0
0
0
0
0
0
0
0
0
0
0
0
0
0
0
0
0
0
0
0
0
0
0
0
0
0
0
0
0
0
0
0
0
0
0
0
0
0
0
0
0
0
0
0
0
0
0
0
0
0
0
0
0
0
0
0
0
0
0
0
0
0
0
0
0
0
0
0
0
0
0
0
0
0
0
0
0
0
0
0
0
0
0
0
0
0
0
0
0
0
0
0
0
0
0
0
0
0
0
0
0
0
0
0
0
0
0
0
0
0
0
0
0
0
0
0
0
0
0
0
0
0
0
0
0
0
0
0
0
0
0
0
0
0
0
0
0
0
0
0
0
0
0
0
0
0
0
0
0
0
0
0
0
0
0
0
0
0
0
0
0
0
0
0
0
0
0
0
0
0
0
0
0
0
0
0
0
0
0
0
0
0
-152.06153
0
0
0
0
0
0
0
0
0
0
0
0
0
0
0
0
0
0
0
0
0
0
0
0
0
0
0
0
0
0
0
0
0
0
0
0
0
0
0
0
0
0
0
0
0
0
0
0
0
0
0
0
0
0
0
0
0
0
0
0
0
0
0
0
0
0
0
0
0
0
0
0
0
0
0
0
0
0
0
0
0
0
0
0
0
0
0
0
0
0
0
0
0
0
0
0
0
0
0
0
0
0
0
0
-70.017746
0
0
-76.199925
0
0
0
0
0
0
-120.33453
0
0
0
0
0
0
0
0
0
0
0
0
0
0
0
0
0
0
0
0
0
0
0
0
0
0
0
0
0
0
0
0
0
0
0
0
0
0
0
0
0
0
0
0
0
0
0
0
0
0
0
0
0
0
0
0
0
0
0
0
0
0
0
0
0
0
0
0
0
0
0
0
0
0
0
0
0
0
0
0
0
0
-108.25835
0
0
0
0
0
0
0
0
0
0
0
0
-93.927083
0
0
0
0
0
0
0
0
0
0
0
0
0
0
0
0
0
0
0
0
0
0
0
0
0
0
0
0
0
0
0
0
0
0
0
0
0
0
0
0
0
0
0
0
0
0
0
0
0
0
0
0
0
0
0
0
0
0
0
0
0
0
0
0
0
0
0
0
0
0
0
0
0
0
0
0
0
0
0
0
0
0
0
0
0
0
0
0
0
0
0
0
0
0
0
0
0
0
0
0
0
0
0
0
0
0
0
0
0
0
0
0
0
0
0
0
0
0
0
0
0
0
0
0
0
0
0
0
0
0
-120.81354
0
-160.77063
0
0
0
0
0
0
-153.85954
0
0
0
0
-105.68461
0
-160.35401
0
0
0
0
0
0
0
0
0
0
0
0
0
0
0
0
0
0
0
0
0
0
0
0
0
0
0
0
0
0
0
0
0
0
0
0
0
0
0
0
0
0
0
0
0
0
0
0
0
0
0
0
0
0
0
0
-155.24488
0
-172.03565
0
-88.989634
0
0
-94.478995
-97.496267
-85.431288
0
-177.93898
-170.06744
-184.83644
-174.10056
-174.64676
-178.95901
-179.41685
-171.09294
0
0
-156.66722
-139.22553
0
-165.53993
-189.68526
-164.83151
-180.002
-184.38869
-167.70251
-181.29369
-182.49206
0
0
0
0
0
0
0
0
0
0
0
0
0
0
0
0
0
0
0
0
0
0
0
0
0
0
0
0
0
0
0
0
-70.612703
0
-89.566895
0
0
-73.742727
0
0
0
0
0
0
0
-72.558902
0
0
-47.111549
0
-52.634421
0
0
0
0
-66.277546
0
-69.868034
-64.015072
0
-63.769049
0
0
0
0
0
0
0
0
-80.68748
0
-89.528275
-70.647998
0
-62.248892
0
0
0
0
0
0
0
0
0
0
0
0
0
0
0
0
0
0
0
0
0
0
0
0
0
0
0
0
0
0
0
0
0
0
0
0
0
0
0
0
0
0
0
0
-98.239768
0
0
0
0
0
0
-82.861337
0
0
0
0
0
-134.34711
-145.80196
-120.0022
0
-120.35246
-118.68407
-95.961703
0
0
0
0
0
0
0
0
0
0
-97.50212
0
0
0
-109.78313
0
0
-92.722097
-95.570288
-82.021262
-100.04095
0
0
0
-85.876313
0
0
-70.216727
-75.414583
-44.764771
0
0
0
-57.588622
0
0
0
0
0
0
0
0
-83.707914
-82.349661
0
0
-70.312796
0
-91.913431
0
0
0
0
0
0
0
0
0
0
0
0
0
0
0
0
0
0
0
0
0
0
0
0
0
0
0
0
-88.883308
0
0
-60.542939
-79.3611
-69.421569
-71.766034
0
0
0
-41.321003
0
0
0
0
0
0
-52.673865
0
-61.433124
0
-39.535572
-38.587994
0
0
-48.378239
-31.364896
0
0
0
0
0
0
0
0
-49.187866
-66.072834
0
0
-57.790142
0
-58.758182
0
0
0
0
0
0
0
-127.45878
-136.44249
-152.17112
-134.7348
-107.90684
-113.80728
-119.75194
0
-85.577948
-79.727039
-67.921004
0
0
0
-150.70555
-168.50722
-171.1582
-149.83885
-133.34401
-142.08899
-132.83066
-140.86077
-125.38766
0
0
0
-131.14828
0
0
0
0
0
0
0
0
-124.81612
-97.999299
0
0
-103.39309
-116.47702
0
0
-92.426611
0
0
0
0
0
0
-121.40255
0
0
0
0
0
-130.94715
-153.18928
-119.14649
-81.562487
-120.22735
-91.995673
-117.11042
0
0
0
0
0
0
0
-103.04729
-122.51051
-120.64089
-100.885
-90.79711
-86.318483
-102.44141
0
-125.15499
-107.71283
-79.422845
0
-84.562728
0
-141.4146
-164.25217
-142.92538
-120.02999
-129.3196
-121.52965
-130.25592
-112.628
-121.37578
0
0
-121.16825
-118.34626
0
0
0
0
0
0
0
0
-92.908399
-79.789956
0
0
-72.120592
-100.16817
0
0
0
0
0
0
0
0
0
0
0
0
0
0
0
0
0
0
0
0
0
0
0
0
0
-145.13377
0
-144.8089
0
0
0
0
0
0
0
0
0
0
0
0
0
0
0
0
0
0
0
0
0
0
0
0
0
0
0
0
0
0
0
0
0
0
0
0
0
0
0
0
0
0
0
0
0
0
0
0
0
0
0
0
0
0
0
0
0
0
0
0
0
0
0
0
0
0
0
0
0
0
0
0
0
0
0
0
0
0
0
0
0
0
0
0
0
0
0
0
0
0
0
0
0
0
0
0
0
0
0
0
0
0
0
0
0
0
0
0
0
0
0
0
0
0
0
0
0
0
0
0
0
0
0
0
0
0
0
0
0
0
0
0
0
0
0
0
0
0
0
0
0
0
0
0
0
0
0
0
0
0
0
0
0
0
0
0
0
0
0
0
0
0
0
0
0
0
0
0
0
0
0
0
0
0
0
0
0
0
0
0
0
0
0
0
0
0
0
0
0
0
0
0
0
0
0
0
0
0
0
0
0
0
0
0
0
0
0
0
0
0
0
0
0
0
0
0
0
0
0
0
0
0
0
0
0
0
0
0
0
0
0
0
0
0
0
0
0
0
0
0
0
0
0
0
0
0
0
0
0
0
0
0
0
0
0
0
0
0
0
0
0
0
0
0
0
0
0
0
0
0
0
0
0
0
0
0
0
0
0
0
0
0
0
0
0
0
0
0
0
0
0
0
0
0
0
0
0
0
0
0
0
0
0
0
0
0
0
0
0
0
0
0
0
0
0
0
0
0
0
0
0
0
0
0
0
0
0
0
0
0
0
0
0
0
0
0
0
0
0
0
0
0
0
0
0
0
0
0
0
0
0
0
0
0
0
0
0
0
0
0
0
0
0
0
0
0
0
0
0
0
0
0
0
0
0
0
0
0
0
0
0
0
0
0
0
0
0
0
0
0
0
0
0
0
0
0
0
0
0
0
0
0
0
0
0
0
0
0
0
0
0
0
0
0
0
0
0
0
0
0
0
0
0
0
0
0
0
0
0
0
0
0
0
0
0
0
0
0
0
0
0
0
0
0
0
0
0
0
0
0
0
0
0
0
0
0
0
0
0
0
0
0
0
0
0
0
0
0
0
0
0
0
0
0
0
0
0
0
0
0
0
0
0
0
0
0
0
0
0
0
0
0
0
)


2268
(
0
0
0
0
0
0
0
0
0
0
0
0
0
0
0
0
0
0
0
0
0
0
0
0
0
0
0
0
0
0
0
0
0
0
0
0
0
0
0
0
0
0
0
0
0
0
0
0
0
0
0
0
0
0
0
0
0
0
0
0
0
0
0
0
0
0
0
0
0
0
0
0
0
0
0
0
0
0
0
0
0
0
0
0
0
0
0
0
0
0
0
0
0
0
0
0
0
0
0
0
0
0
0
0
0
0
0
0
0
0
0
0
0
0
0
0
0
0
0
0
0
0
0
0
0
0
0
0
0
0
0
0
0
0
0
0
0
0
0
0
0
0
0
0
0
0
0
0
0
0
0
0
0
0
0
0
0
0
0
0
0
0
0
0
0
0
0
0
0
0
0
0
0
0
0
0
0
0
0
0
0
0
0
0
0
0
0
0
0
0
0
0
0
0
0
0
0
0
0
0
0
0
0
0
0
0
0
0
0
0
0
0
0
0
0
0
0
0
0
0
0
0
0
0
0
0
0
0
0
0
0
0
0
0
0
0
0
0
0
0
0
0
0
0
0
0
0
0
0
0
0
0
0
0
0
0
0
0
0
0
0
0
0
0
0
0
0
0
0
0
0
0
0
0
0
0
0
0
0
0
0
0
0
0
0
0
0
0
0
0
0
0
0
0
0
0
0
0
0
0
0
0
0
0
0
0
0
0
0
0
0
0
0
0
0
0
0
0
0
0
0
0
0
0
0
0
0
0
0
0
0
0
0
0
0
0
0
0
0
0
0
0
0
0
0
0
0
0
0
0
0
0
0
0
0
0
0
0
0
0
0
0
0
0
0
0
0
0
0
0
0
0
0
0
0
0
0
0
0
0
0
0
0
0
0
0
0
0
0
0
0
0
0
0
0
0
0
0
0
0
0
0
0
0
0
0
0
0
0
0
0
0
0
0
0
0
0
0
0
0
0
0
0
0
0
0
0
0
0
0
0
0
0
0
0
0
0
0
0
0
0
0
0
0
0
0
0
0
0
0
0
0
0
0
0
0
0
0
0
0
0
0
0
0
0
0
0
0
0
0
0
0
0
0
0
0
0
0
0
0
0
0
0
0
0
0
0
0
0
0
0
0
0
0
0
0
0
0
0
0
0
0
0
0
0
0
0
0
0
0
0
0
0
0
0
0
0
0
0
0
0
0
0
0
0
0
0
0
0
0
0
0
0
0
0
0
0
0
0
0
0
0
0
0
0
0
0
0
0
0
0
0
0
0
0
0
0
0
0
0
0
0
0
0
0
0
0
0
0
0
0
0
0
0
0
0
0
0
0
0
0
0
0
0
0
0
0
0
0
0
0
0
0
0
0
0
0
0
0
0
0
0
0
0
0
0
0
0
0
0
0
0
0
0
0
0
0
0
0
0
0
0
0
0
0
0
0
0
0
0
0
0
0
0
0
0
0
0
0
0
0
0
0
0
0
0
0
0
0
0
0
0
0
0
0
0
0
0
0
0
0
0
0
0
0
0
0
0
0
0
0
0
0
0
0
0
0
0
0
0
0
0
0
0
0
0
0
0
0
0
0
0
0
0
0
0
0
0
0
0
0
0
0
0
0
0
0
0
0
0
0
0
0
0
0
0
0
0
0
0
0
0
0
0
0
0
0
0
0
0
0
0
0
0
0
0
0
0
0
0
0
0
0
0
0
0
0
0
0
0
0
0
0
0
0
0
0
0
0
0
0
0
0
0
0
0
0
0
0
0
0
0
0
0
0
0
0
0
0
0
0
0
0
0
0
0
0
0
0
0
0
0
0
0
0
0
0
0
0
0
0
0
0
0
0
0
0
0
0
0
0
0
0
0
0
0
0
0
0
0
0
0
0
0
0
0
0
0
0
0
0
0
0
0
0
0
0
0
0
0
0
0
0
0
0
0
0
0
0
0
0
0
0
0
0
0
0
0
0
0
0
0
0
0
0
0
0
0
0
0
0
0
0
0
0
0
0
0
0
0
0
0
0
0
0
0
0
0
0
0
0
0
0
0
0
0
0
0
0
0
0
0
0
0
0
0
0
0
0
0
0
0
0
0
0
0
0
0
0
0
0
0
0
0
0
0
0
0
0
0
0
0
0
0
0
0
0
0
0
0
0
0
0
0
0
0
0
0
0
0
0
0
0
0
0
0
0
0
0
0
0
0
0
0
0
0
0
0
0
0
0
0
0
0
0
0
0
0
0
0
0
0
0
0
0
0
0
0
0
0
0
0
0
0
0
0
0
0
0
0
0
0
0
0
0
0
0
0
0
0
0
0
0
0
0
0
0
0
0
0
0
0
0
0
0
0
0
0
0
0
0
0
0
0
0
0
0
0
0
0
0
0
0
0
0
0
0
0
0
0
0
0
0
0
0
0
0
0
0
0
0
0
0
0
0
0
0
0
0
0
0
0
0
0
0
0
0
0
0
0
0
0
0
0
0
0
0
0
0
0
0
0
0
0
0
0
0
0
0
0
0
0
0
0
0
0
0
0
0
0
0
0
0
0
0
0
0
0
0
0
0
0
0
0
0
0
0
0
0
0
0
0
0
0
0
0
0
0
0
0
0
0
0
0
0
0
0
0
0
0
0
0
0
0
0
0
0
0
0
0
0
0
0
0
0
0
0
0
0
0
0
0
0
0
0
0
0
0
0
0
0
0
0
0
0
0
0
0
0
0
0
0
0
0
0
0
0
0
0
0
0
0
0
0
0
0
0
0
0
0
0
0
0
0
0
0
0
0
0
0
0
0
0
0
0
0
0
0
0
0
0
0
0
0
0
0
0
0
0
0
0
0
0
0
0
0
0
0
0
0
0
0
0
0
0
0
0
0
0
0
0
0
0
0
0
0
0
0
0
0
0
0
0
0
0
0
0
0
0
0
0
0
0
0
0
0
0
0
0
0
0
0
0
0
0
0
0
0
0
0
0
0
0
0
0
0
0
0
0
0
0
0
0
0
0
0
0
0
0
0
0
0
0
0
0
0
0
0
0
0
0
0
0
0
0
0
0
0
0
0
0
0
0
0
0
0
0
0
0
0
0
0
0
0
0
0
0
0
0
0
0
0
0
0
0
0
0
0
0
0
0
0
0
0
0
0
0
0
0
0
0
0
0
0
0
0
0
0
0
0
0
0
0
0
0
0
0
0
0
0
0
0
0
0
0
0
0
0
0
0
0
0
0
0
0
0
0
0
0
0
0
0
0
0
0
0
0
0
0
0
0
0
0
0
0
0
0
0
0
0
0
0
0
0
0
0
0
0
0
0
0
0
0
0
0
0
0
0
0
0
0
0
0
0
0
0
0
0
0
0
0
0
0
0
0
0
0
0
0
0
0
0
0
0
0
0
0
0
0
0
-100.36489
0
0
0
0
0
0
0
0
0
0
0
0
-147.85533
0
-123.30571
0
-129.47052
-109.34032
-89.881204
0
0
0
0
0
0
0
0
0
0
0
0
0
0
0
0
0
0
0
0
0
0
0
0
0
0
0
0
0
0
0
0
0
0
0
0
0
0
0
0
0
0
0
0
0
0
0
0
0
0
0
0
0
0
0
0
0
0
0
0
0
0
0
0
0
0
0
0
0
0
0
0
0
0
0
0
0
0
0
0
0
0
0
0
0
0
0
0
0
0
0
0
0
0
0
0
0
0
0
0
0
0
0
0
0
0
0
0
0
0
0
0
0
0
0
0
0
0
0
0
0
0
0
0
0
0
0
0
0
0
0
0
0
0
0
0
0
0
0
0
0
0
0
0
0
0
0
0
-100.98335
0
0
0
0
0
0
0
0
0
0
0
0
0
0
0
0
0
0
0
0
-100.71868
0
0
0
0
0
0
0
0
0
0
0
0
-148.05095
0
-131.47431
-86.167891
-127.23928
-90.697318
-121.36682
0
0
0
0
0
0
0
0
0
0
0
0
0
0
0
0
0
0
0
0
0
0
0
0
0
0
0
0
0
-97.000186
0
0
0
-88.56877
0
0
0
0
0
0
0
0
0
0
0
0
0
0
0
0
0
0
0
0
0
0
0
0
0
0
0
0
0
0
0
0
0
0
0
0
0
0
0
0
0
0
0
0
0
0
0
0
0
0
0
0
0
0
0
0
0
0
0
0
0
0
0
0
0
0
0
0
0
0
0
0
0
0
0
0
0
0
0
0
0
0
0
0
0
0
0
0
0
0
0
0
0
0
0
0
0
0
0
0
0
0
0
0
0
0
0
0
0
0
0
0
0
0
0
0
0
0
0
0
0
0
0
0
0
0
0
0
0
0
0
0
0
0
0
0
0
0
0
0
0
0
0
0
0
0
0
0
0
0
0
0
0
0
0
0
0
0
0
0
0
0
0
0
0
0
0
0
0
0
0
0
0
0
0
0
0
0
0
0
0
0
0
0
0
0
0
0
0
0
0
0
0
0
0
0
0
0
0
0
0
0
0
0
0
0
0
0
0
0
0
0
0
0
0
0
0
0
0
0
0
0
0
0
0
0
0
0
0
0
0
0
0
0
0
0
0
0
0
0
0
0
0
0
0
0
0
0
0
0
0
0
0
0
0
0
0
0
0
0
0
0
0
0
0
0
0
0
0
0
0
0
0
0
0
0
0
0
0
0
0
0
0
0
0
0
0
0
0
0
0
0
0
0
0
0
0
0
0
0
0
0
0
0
0
0
0
0
0
0
0
0
0
0
0
0
0
0
0
0
0
0
0
0
0
0
0
0
0
0
0
0
0
0
0
0
0
0
0
0
0
0
0
0
0
0
0
0
0
0
0
0
0
0
0
0
0
0
0
0
0
0
0
0
0
0
0
0
0
0
0
0
0
0
0
0
0
0
0
0
0
0
0
0
0
0
0
0
0
0
0
0
0
0
0
0
0
0
0
0
0
0
0
0
0
0
0
0
0
0
0
0
0
0
0
0
0
0
0
0
0
0
0
0
0
0
0
0
0
0
0
0
0
0
0
0
0
0
0
0
0
0
0
0
0
0
0
0
0
0
0
0
0
0
0
0
0
0
0
0
0
0
0
0
0
0
0
0
0
0
0
0
0
0
0
0
0
0
0
0
0
0
0
0
0
0
0
0
0
0
0
0
0
0
0
0
0
0
0
0
0
0
0
0
0
0
0
0
0
0
0
0
0
0
0
0
0
0
0
0
0
0
0
0
0
0
0
0
0
0
0
0
0
0
0
)

2268{0}
)


// ************************************************************************* //
