/*--------------------------------*- C++ -*----------------------------------*\
  =========                 |
  \\      /  F ield         | OpenFOAM: The Open Source CFD Toolbox
   \\    /   O peration     | Website:  https://openfoam.org
    \\  /    A nd           | Version:  8
     \\/     M anipulation  |
\*---------------------------------------------------------------------------*/
/*   Windows 32 and 64 bit porting by blueCAPE: http://www.bluecape.com.pt   *\
|  Based on Windows porting (2.0.x v4) by Symscape: http://www.symscape.com   |
\*---------------------------------------------------------------------------*/
FoamFile
{
    version     2.0;
    format      ascii;
    class       scalarListList;
    location    "constant/vegetation";
    object      F;
}
// * * * * * * * * * * * * * * * * * * * * * * * * * * * * * * * * * * * * * //


915
(

2210
(
0.0001909758
0.00028892904
0.00022142467
0.00027462845
0.00014758033
0.00033946374
6.5765864e-05
0.00022193131
0.00036344982
0.00040295784
0.0090250773
0.0006374247
0.0018433592
0.0010909227
0.00020591126
0.00037534545
2.8640242e-05
8.0645464e-06
0.00036890754
8.6855063e-06
6.4503779e-06
4.0828995e-06
0.00035552274
8.7667763e-05
4.2590007e-06
1.1129647e-05
0.00018085857
0.00010088636
2.359746e-05
2.5109957e-05
7.1062913e-06
1.5474114e-05
6.7016129e-05
1.6083501e-05
4.786327e-05
3.9440022e-05
3.3887348e-05
2.4423063e-05
3.236402e-05
5.1235072e-06
6.3275098e-06
0.00020283301
6.5652496e-06
1.7947229e-05
6.0644697e-05
4.944247e-06
4.0485871e-05
2.6220538e-05
1.4042971e-05
6.5436374e-05
1.4009876e-05
2.8318002e-05
9.1654279e-06
9.4754368e-06
0.00020662274
8.3650463e-06
9.6538762e-05
2.4812031e-05
2.408168e-05
3.3461399e-05
7.9996966e-06
8.3185566e-06
5.7317141e-06
2.8023816e-05
7.9807221e-06
0.00071650025
0.0017130014
0.0003615888
0.00049066037
4.9585125e-06
4.8663607e-06
1.3218823e-06
2.9056971e-06
4.3023926e-06
4.2292711e-06
5.0960002e-06
4.6119257e-06
3.9158286e-06
4.6541725e-06
4.531938e-06
4.0119205e-06
5.0391118e-06
4.7786985e-06
3.5500617e-06
5.6869494e-08
4.3772184e-06
4.1573729e-06
5.1073123e-06
4.6941299e-06
3.7880815e-06
5.0982915e-07
4.3600374e-06
4.4536927e-06
4.0859104e-06
4.3486908e-07
6.5620688e-07
1.4415516e-05
1.4377329e-05
1.4407695e-05
1.4440141e-05
1.4237537e-05
1.4148765e-05
1.2933523e-05
1.4458607e-05
8.5244263e-07
1.0103689e-06
8.5258976e-07
5.4440182e-06
1.011006e-06
5.6143692e-06
4.9192302e-06
4.7010935e-06
8.5540862e-07
8.4969684e-07
1.5405321e-06
1.4553407e-06
1.3563445e-06
1.4296818e-06
1.0235901e-06
1.2344342e-06
1.3329557e-06
1.2606343e-06
1.5780635e-06
1.8116931e-06
1.8443524e-06
1.8459526e-06
1.3669954e-06
1.5816524e-06
5.2859524e-06
1.495979e-06
1.3444328e-06
1.0213662e-06
1.2458463e-06
1.6041837e-06
1.8343952e-06
1.3631885e-06
1.3378956e-06
5.1023847e-06
1.3941128e-06
1.4695722e-06
1.2029616e-06
1.2241501e-06
4.424384e-06
1.3695697e-06
1.2713131e-06
9.8174512e-07
1.0600522e-06
1.1823176e-06
1.1620763e-06
1.3910017e-06
1.4241384e-06
1.467879e-06
1.5098092e-06
1.4389865e-06
1.2906167e-06
1.313887e-06
1.4818643e-06
1.3874817e-06
1.4126632e-06
1.2679252e-06
1.2457948e-06
1.2931724e-06
1.3802366e-06
1.3159513e-06
1.3630341e-06
1.4046691e-06
1.3392266e-06
9.867713e-07
1.1524589e-06
1.1113679e-06
1.103695e-06
1.0852623e-06
1.2030296e-06
1.1820509e-06
1.1551672e-06
1.2709391e-06
1.3093452e-06
1.2491102e-06
1.1228137e-06
1.1422847e-06
1.285067e-06
1.2055033e-06
1.2274886e-06
1.4789283e-05
1.5390006e-05
1.4828125e-05
1.5366072e-05
1.4745225e-05
1.532711e-05
1.5023604e-06
1.6323911e-06
1.548622e-06
1.5196596e-06
1.4676292e-06
1.7136986e-06
1.7001172e-06
1.6156041e-06
1.5241285e-05
1.825809e-06
1.9381161e-06
1.8324507e-06
1.962404e-06
1.944664e-06
1.4835094e-05
1.5396267e-05
1.4864819e-05
1.5309921e-05
1.6672968e-05
1.5393755e-06
1.155708e-05
2.3613246e-06
1.746167e-06
1.9932836e-06
2.0027765e-06
1.0099301e-06
1.1288087e-06
1.1288649e-06
1.0123823e-06
1.1284615e-06
1.1299596e-06
1.0154582e-06
1.1451888e-06
1.1351212e-06
8.522443e-07
8.5291379e-07
7.7686542e-07
8.5190533e-07
4.5321686e-06
8.5378216e-07
7.9408144e-07
1.4685645e-05
1.473877e-05
1.4797766e-05
1.4931769e-05
1.487864e-05
1.2146708e-06
1.3786607e-06
1.2166453e-06
1.5517363e-06
1.7139938e-06
1.6908069e-06
1.5233623e-06
1.6313102e-06
1.6616246e-06
1.2011388e-06
1.2112689e-06
1.1951525e-06
1.207143e-06
1.3760277e-06
1.2021555e-06
1.6525582e-06
1.7277697e-06
1.6174148e-06
1.8193146e-06
1.6796744e-06
1.7409655e-06
1.831172e-06
1.9157903e-06
1.4186703e-06
1.519036e-06
1.5479251e-06
1.4438156e-06
1.603605e-06
1.5743462e-06
1.3431049e-06
1.492778e-06
1.4529575e-06
1.3041118e-06
1.2408479e-06
1.404058e-06
0.0004632573
0.00018846464
0.00018547776
1.5287647e-05
1.4695249e-05
1.4632206e-05
0.00071732493
0.00052911668
0.0026030912
0.0005335478
5.41725e-05
1.4944086e-05
0.00081867769
6.2062683e-05
1.4617316e-05
0.00018297352
0.00014347768
0.00012638292
1.4372436e-05
1.6532374e-05
2.018772e-05
8.2734579e-05
1.6427051e-05
0.00011265558
2.5116164e-05
1.8274638e-05
0.00021227399
5.680911e-05
1.9541007e-05
4.7405578e-05
2.4354524e-05
0.00015143011
1.183271e-05
5.3926295e-05
2.3606451e-05
3.0514877e-05
2.859533e-05
1.5793965e-05
4.9509947e-05
2.4934415e-05
1.4236101e-05
9.1282828e-06
6.5462983e-05
0.0024387804
0.0010058202
0.00062206238
0.0012423758
0.00029431009
0.00063091596
0.0007199385
0.0077166334
0.001555968
2.136213e-05
4.1137822e-05
4.6871897e-05
3.8313158e-05
0.00055456844
0.00097644636
9.5707973e-05
0.00010304487
2.1397319e-05
4.0570124e-05
0.00042056493
0.0026241024
0.00019449747
0.00010803077
4.4337672e-05
0.00014273238
8.917134e-05
3.0308988e-05
8.0292828e-05
0.00016342205
8.7560607e-05
3.1591936e-05
6.2481291e-05
0.0001185147
0.0001077157
2.5145353e-05
0.00017901903
0.0003704087
5.3287706e-05
0.00010652327
0.00012739112
1.9862181e-05
0.0056436353
0.0011331284
0.0012949788
0.0020903579
7.4965927e-05
2.2762436e-05
0.00012243694
3.2333738e-05
2.0573471e-05
2.0011599e-05
2.5147502e-05
1.0201331e-05
2.5900291e-05
2.2390002e-05
1.8362718e-05
2.7579221e-05
2.3041381e-05
1.7701442e-05
2.7829725e-05
5.8056463e-08
2.1157336e-05
5.978227e-08
5.5999855e-08
1.9470152e-05
5.1247882e-08
2.7592773e-06
1.5751529e-05
4.7304417e-06
2.4418558e-05
6.7555398e-08
6.8774638e-08
1.4154844e-05
3.67579e-06
4.9918975e-07
2.6669732e-05
5.8942795e-08
3.9689158e-08
2.176152e-05
6.3312732e-08
6.1549509e-08
1.89455e-05
4.2566754e-08
3.950847e-08
2.4373817e-05
7.4245517e-08
5.6943824e-07
6.6186104e-06
3.7038732e-06
4.5002683e-06
2.3717386e-05
6.52034e-08
6.7033717e-08
1.6697717e-05
3.8957842e-08
6.4775628e-08
4.1197342e-06
2.743406e-06
2.7332255e-05
3.4939241e-08
3.8669185e-08
2.5036359e-06
2.5751957e-06
2.7268253e-06
2.6497675e-06
2.4249035e-06
2.3440056e-06
2.1766357e-06
2.2368183e-06
3.0391455e-06
2.9734652e-06
2.8070124e-06
2.8895395e-06
2.1892223e-06
2.3379014e-06
3.0450058e-06
3.051018e-06
3.2963163e-06
3.120524e-06
4.4056373e-05
4.4093209e-05
0.00022049596
0.00021559449
0.00024386209
3.7132391e-05
4.8833947e-05
4.3757366e-05
4.9010068e-05
4.4308477e-05
5.023781e-05
3.9786226e-05
4.3589841e-05
4.6914213e-05
4.4305297e-05
5.0427412e-05
4.7576727e-05
4.9788788e-05
0.00015289927
4.7150264e-05
4.3990452e-05
4.7205977e-05
4.4116388e-05
4.4774904e-05
4.3548945e-05
4.558808e-05
4.4785261e-05
5.0052454e-05
4.5249566e-05
4.3891182e-05
4.6827342e-05
4.4165326e-05
4.7602275e-05
4.3389651e-05
4.239638e-05
4.7584623e-05
4.4912728e-05
4.4327498e-05
4.2832218e-05
4.2333319e-05
4.9685132e-05
4.8726742e-05
4.9754383e-05
4.930055e-05
4.9716103e-05
5.0415957e-05
4.5302288e-05
4.6315762e-05
4.5734057e-05
5.053876e-05
4.8100128e-05
4.5844529e-05
4.8314162e-05
4.9071454e-05
4.7507303e-05
4.4633662e-05
3.7979718e-05
4.2962947e-05
3.6807985e-05
4.2440018e-05
4.7459701e-05
3.9081105e-05
4.7028047e-05
3.8273422e-05
4.9308796e-05
4.9148893e-05
2.6024286e-05
2.4320246e-05
2.305299e-05
2.4615596e-05
2.4294236e-05
2.8619874e-05
2.2769701e-05
5.1985694e-06
2.9074096e-05
3.0860052e-05
3.0422941e-05
5.3083548e-06
2.9122478e-05
3.0208125e-05
5.0808025e-06
5.5510073e-06
4.9440429e-06
3.9271509e-06
6.0927768e-06
9.6199993e-06
9.5755749e-06
2.3991423e-05
5.3059283e-06
5.2252702e-06
9.618497e-06
9.7198694e-06
6.1521207e-06
5.7071854e-06
4.6329494e-06
4.2750184e-06
6.2052887e-06
5.718746e-06
9.3080595e-06
7.7304365e-06
9.4039893e-06
9.5459282e-06
6.5331336e-06
6.0744784e-06
5.3970459e-06
6.0032632e-06
6.7208323e-06
7.3362723e-06
8.2752541e-06
7.5578981e-06
9.7286439e-06
8.5301327e-06
9.455316e-06
2.5723606e-05
3.0682279e-05
3.0188384e-05
4.7076235e-05
8.9014774e-06
8.8928793e-06
6.723261e-06
2.1506032e-05
6.1492879e-06
6.9188529e-06
2.6120123e-05
7.5530639e-06
4.7269473e-05
8.9050842e-06
8.9069733e-06
6.5272883e-06
4.9223934e-06
4.6243066e-06
8.6381772e-06
8.5471275e-06
2.458179e-05
9.3040067e-06
7.41488e-06
9.6086178e-06
3.1064275e-05
9.5827142e-06
8.7012443e-06
8.7512455e-06
3.0881249e-05
9.4079557e-06
9.5537758e-06
5.769844e-06
5.6106349e-06
6.5484051e-06
5.3550471e-06
6.0921962e-06
6.1175202e-06
4.8753007e-06
5.9368233e-06
6.1106016e-06
2.7694593e-05
8.5049947e-06
7.7815391e-06
7.3069701e-06
7.0874136e-06
9.5065546e-06
8.6728923e-06
9.5292128e-06
4.3720201e-05
9.2971989e-06
7.5366581e-06
7.7792964e-06
7.5749721e-06
6.6212683e-06
9.3583874e-06
9.6140352e-06
9.348253e-06
4.696943e-05
8.8562878e-06
8.8779046e-06
9.5981309e-06
9.309794e-06
9.3322861e-06
6.656519e-06
5.2870999e-06
6.6977319e-06
6.5866746e-06
5.2758607e-06
6.6833747e-06
9.3651033e-06
9.6268207e-06
9.3738653e-06
4.738392e-05
8.9414587e-06
8.914475e-06
9.6590383e-06
9.4379792e-06
9.3942328e-06
3.9947601e-06
8.1035951e-06
8.3919316e-06
9.061932e-06
9.106696e-06
8.9085754e-06
7.8986159e-06
8.6598485e-06
8.5828887e-06
8.8280008e-06
8.7930582e-06
9.1444411e-06
9.4641298e-06
9.2002886e-06
9.2805807e-06
9.5091793e-06
9.2443591e-06
6.2168462e-06
6.3555785e-06
6.0486577e-06
5.3297904e-06
5.4622081e-06
6.1961209e-06
5.7730712e-06
5.8974588e-06
5.2242439e-06
5.1261555e-06
5.2858608e-06
5.5747267e-06
5.2996398e-06
5.6882713e-06
5.9235244e-06
5.6044542e-06
6.3957796e-06
6.9175631e-06
6.582932e-06
6.4789258e-06
6.291056e-06
7.1227177e-06
6.9804814e-06
6.7776665e-06
6.6739313e-06
6.8765197e-06
7.8758206e-06
8.028459e-06
7.637991e-06
7.1910774e-06
7.788481e-06
7.4099433e-06
4.5457292e-05
8.9418778e-06
8.5751836e-06
8.6224314e-06
8.5634169e-06
9.4388406e-06
9.2679197e-06
9.0179655e-06
8.1256478e-06
8.8066586e-06
8.3915306e-06
8.3357375e-06
8.0411429e-06
9.1153703e-06
8.9997917e-06
8.6806043e-06
5.1562804e-06
5.4030516e-06
5.3197708e-06
5.3119691e-06
5.5265724e-06
5.5295086e-06
5.3020328e-06
5.5286919e-06
5.5270148e-06
5.2453782e-06
5.4420912e-06
5.4666448e-06
4.5312391e-05
5.077501e-06
4.7383041e-06
5.1337824e-06
5.3230244e-06
5.5737222e-06
5.5444867e-06
5.2957837e-06
5.5115313e-06
5.5206094e-06
5.2619514e-06
5.4996575e-06
5.4849129e-06
4.3814117e-05
4.3324482e-05
4.1820176e-05
4.1294236e-05
2.761923e-05
2.6377543e-05
2.8000591e-05
2.2006399e-05
2.4559214e-05
2.216577e-05
2.0521243e-05
2.5751173e-05
2.1761057e-05
2.7269905e-05
2.4096982e-05
2.3026811e-05
1.9180109e-05
2.0851549e-05
1.7677622e-05
5.2413721e-06
5.3870305e-06
4.764593e-06
4.5648626e-06
4.9602656e-05
4.9490003e-05
2.1767948e-05
2.4421319e-05
2.2059295e-05
4.9854608e-05
5.0053365e-05
6.0270924e-06
5.8727636e-06
3.8540111e-06
5.5727582e-06
6.2604388e-06
4.4751051e-05
4.418948e-05
4.8245884e-05
4.6387017e-05
4.6934723e-05
2.7287361e-05
2.6225611e-05
2.7836344e-05
2.9266045e-05
3.0960194e-05
2.9653592e-05
2.8891181e-05
3.0761979e-05
2.9470764e-05
6.5320597e-06
7.3392312e-06
7.0776782e-06
6.3034719e-06
6.0239935e-06
6.8009887e-06
7.1213145e-06
7.5476456e-06
7.7810771e-06
7.3329183e-06
8.2530779e-06
8.0042329e-06
5.8994235e-06
6.2984682e-06
5.7681527e-06
4.8423744e-06
5.8826074e-06
5.4420908e-06
9.0607382e-06
9.8175394e-06
9.4494135e-06
6.8605371e-06
8.4779337e-06
8.791623e-06
9.6173843e-06
1.0079812e-05
1.0156889e-05
9.6049979e-06
1.0129624e-05
1.0147724e-05
9.4720796e-06
9.9226577e-06
1.001403e-05
9.5169344e-06
1.0101115e-05
1.0057694e-05
5.977346e-06
5.9103306e-06
5.9487879e-06
5.9875133e-06
6.7308591e-06
5.9805086e-06
8.2640422e-06
9.2210614e-06
9.0121463e-06
8.0192487e-06
8.4941347e-06
8.7573165e-06
9.4601237e-06
9.9208995e-06
8.9662511e-06
8.90036e-06
9.340065e-06
8.6906619e-06
9.5083824e-06
9.2269384e-06
1.0177839e-05
6.0424618e-06
6.7095104e-06
6.0497375e-06
6.7058665e-06
6.0342524e-06
6.0445821e-06
5.9519181e-06
6.6387176e-06
5.9830522e-06
6.66073e-06
6.0209834e-06
6.0039045e-06
3.6823616e-05
3.637294e-05
4.5886626e-05
4.5448262e-05
5.7649148e-05
0.025581931
0.0035903672
0.00054437899
0.00022767808
0.00011251149
0.00015191246
0.0024745562
0.00010222567
0.001190768
0.0013479911
0.00035244078
0.00039013809
7.4689394e-05
4.6588318e-05
0.00042476885
0.00036553941
0.00010787828
0.0073961924
0.0013207564
0.00010361759
0.00011729499
0.0012464797
0.0013567665
0.00034274923
0.00026678979
0.00078283965
0.00012228444
0.00011811264
7.6582307e-05
4.9911995e-05
0.00014913782
0.0019672148
0.00010616389
0.00077671552
0.0001971316
9.2229802e-05
0.00014562317
5.569258e-05
0.00036541205
0.00011196333
0.00025218064
0.00032978287
0.00023762631
5.8545406e-05
4.8794521e-05
0.00015780554
0.00043526392
5.3683105e-05
4.5572445e-05
0.00011897092
0.016872238
0.0060312233
0.00015469901
0.00013285396
5.4935189e-06
3.9485625e-05
3.1476005e-05
4.8514254e-05
0.0014604732
0.0018896885
0.0032171214
0.0015816281
0.0011535517
0.001207669
0.00015579444
0.00015114052
0.00021118603
0.00020489241
4.2671439e-05
4.4535441e-05
4.5139191e-05
4.2036211e-05
0.00021737057
3.9589453e-05
4.132126e-05
3.900039e-05
0.00022190045
4.1882893e-05
4.0759933e-05
4.0215148e-05
3.8536788e-05
3.7964215e-05
0.00016035111
4.1235609e-05
4.3299868e-05
4.3921257e-05
4.3033474e-05
4.3616664e-05
4.0621954e-05
4.1396538e-05
0.00016286142
4.0173021e-05
3.395989e-05
4.0750591e-05
3.5474627e-05
3.8404974e-05
3.3470775e-05
3.5944436e-05
3.9661751e-05
3.9102697e-05
3.7389621e-05
0.00017250781
4.1842e-05
4.2441598e-05
4.0006078e-05
0.00017533736
3.4480026e-05
3.4960865e-05
3.2943106e-05
0.29636435
0.018130823
0.0002035624
0.00052028192
0.032449559
0.06822322
0.0044010292
0.00048845889
0.032016998
0.0010144867
0.00043157933
0.0017312694
0.0059986508
0.0055789031
0.0020303263
0.0074246978
0.00088657216
0.00019287271
0.0010290564
0.0017769488
0.00044750436
0.0023775264
0.00025933022
0.00048699154
0.0016939463
0.0021101651
0.17632096
0.029383886
0.0072094219
0.022155585
0.0057668394
0.00015415149
0.00022662894
0.00021615657
0.00034956652
0.00016132391
0.00031819645
0.0003339741
0.00026192758
0.00018160897
0.00039979061
0.00027498048
0.00038467663
6.2628355e-07
0.00023775917
6.9850174e-07
4.7457653e-07
0.00020555514
5.1095921e-07
0.00040786241
7.4955848e-06
6.5821944e-07
0.00030310422
9.552441e-07
9.0937452e-07
0.00035042877
1.0019247e-06
1.0045394e-06
0.00024952257
7.7955069e-07
7.4066927e-07
0.00019483881
7.6352156e-07
4.7181712e-07
0.00041107917
5.8577158e-07
4.6435512e-07
6.7954683e-05
5.7601313e-05
0.00028870432
8.211208e-07
8.6331481e-07
0.00036744681
6.1094107e-07
8.9436035e-07
5.6928286e-05
2.8763544e-05
3.041801e-05
3.3788105e-05
3.2119921e-05
2.6877629e-05
2.5695358e-05
2.6941779e-05
2.5493833e-05
4.9065102e-05
5.1946833e-05
8.9908798e-05
4.1467732e-05
3.9401438e-05
3.5562828e-05
3.7427443e-05
4.361755e-05
4.5518313e-05
4.7382308e-05
4.6490621e-05
0.0003576917
0.00018857519
0.00030876351
0.00030219452
0.00016924877
0.00033948639
0.0001893257
0.00016989687
0.00030696679
0.00042725712
0.00026936521
0.00016084515
0.00047118735
0.00029020101
0.00014414505
0.00014928791
0.00048338295
0.00053829864
5.9409597e-05
6.9995152e-05
5.5840931e-05
4.5277438e-05
0.0001027029
0.00010044106
0.00056474225
0.0001667491
0.00051847207
0.00010848107
0.00016403205
0.00016910955
8.5999127e-05
7.3555434e-05
4.6786732e-05
6.7861718e-05
5.6518112e-05
9.0181552e-05
8.832211e-05
7.4266721e-05
7.3124753e-05
6.9342061e-05
7.2420076e-05
8.6236229e-05
7.8699895e-05
7.4298714e-05
7.4437302e-05
7.4055906e-05
0.00012139561
0.00016117681
9.0694665e-05
0.00010725975
0.00013551356
0.00011363628
0.00018775969
0.000181382
0.00014381648
0.00017145224
0.00016632896
0.00033437688
0.00050913474
0.00047098895
0.00020278851
0.00018288578
0.00019921052
0.00030807266
8.1521184e-05
8.0366666e-05
8.8444048e-05
8.0718742e-05
8.024271e-05
9.3941269e-05
0.00038298272
0.00011130337
0.00020010095
0.00018951881
0.00018481349
0.00022050356
7.4235769e-05
5.7863386e-05
0.00012681405
0.00017614929
0.00011308864
0.00030140596
7.601584e-05
7.9564622e-05
7.4322925e-05
7.0713407e-05
7.8389692e-05
8.2831484e-05
0.00043029312
0.0001407093
0.0001179419
0.00011690429
0.00011025181
0.0005886568
0.00014928683
0.00017457868
0.00017363121
0.00017610619
0.00012400959
0.00013159897
9.712975e-05
0.00017977981
0.00018227624
0.00019623052
5.5426179e-05
6.666104e-05
6.5755836e-05
6.5100865e-05
6.2364484e-05
5.9989243e-05
6.3021458e-05
7.2588991e-05
7.4063845e-05
7.2369618e-05
7.3673271e-05
7.1480298e-05
7.2000569e-05
6.7940389e-05
7.0542779e-05
6.9042887e-05
7.1559239e-05
7.0811548e-05
6.999811e-05
8.1237753e-05
8.2765761e-05
7.7746025e-05
6.5136726e-05
6.7716535e-05
8.051258e-05
7.3325115e-05
7.5238679e-05
7.2673233e-05
7.4281495e-05
7.2668443e-05
7.4317358e-05
7.299395e-05
7.2687608e-05
6.1350109e-05
8.6270958e-05
6.9674977e-05
7.3677251e-05
7.3542518e-05
8.5475754e-05
9.5766872e-05
9.0250947e-05
9.2725507e-05
8.7610826e-05
0.00010130023
0.00010105419
9.5458739e-05
9.8184226e-05
0.00010402137
0.00012755654
0.00012774178
0.00012026416
0.00010703453
0.00012045668
0.00011343306
0.00017761994
0.00019720471
0.00018745424
0.00015750317
0.00016728483
0.00019089531
0.00017137668
0.00018086215
0.00013534941
0.00015257927
0.00014365415
0.00014832012
0.0001396923
0.00016177275
0.0001617793
0.00015248078
0.00018727602
0.00019635719
0.00019516022
0.00018962755
0.00019691253
0.00019717424
0.00015336185
0.0001680163
0.0001596056
0.00017174608
0.00017424784
0.00017940515
0.00018538389
0.000190746
0.00019326608
0.00018963937
0.00019794754
0.00019745607
0.00014283139
0.00012694316
0.00014696816
0.00017606785
0.00018759787
0.00018382148
0.00035770284
0.00040406202
0.00040525379
0.00016806337
0.00017005242
0.00024913679
0.00034388573
0.00027933134
0.00038344205
0.00034517919
0.00031084183
0.00037851984
0.00050027012
0.00040185519
0.00013817104
0.0001538087
6.3060025e-05
6.6240897e-05
4.7240641e-05
5.0699754e-05
9.1947127e-05
0.00059815239
0.00056234797
0.00059364678
0.0005478705
0.00054605354
0.00057596102
0.0001663276
0.00016978642
8.1607919e-05
7.7641651e-05
9.4165617e-05
9.6837368e-05
0.00013087951
0.00015776909
0.00015282091
0.00034934269
0.00037714581
0.00039527233
0.0004537754
0.00050960527
0.00045483838
0.00042176679
0.0004956151
0.00044304672
0.00019579509
0.00020328538
0.00019495952
0.00020165112
0.00019074939
0.00019319785
8.1410054e-05
9.0632088e-05
9.1102917e-05
8.0992497e-05
8.99636e-05
9.0661672e-05
8.4519585e-05
9.6057109e-05
8.3409258e-05
8.0285962e-05
8.9222041e-05
8.0458625e-05
8.2457072e-05
8.0537152e-05
9.1593667e-05
9.9322766e-05
0.00010235241
0.00010910141
0.00010510557
0.00012238682
0.00011527303
0.00019422243
0.00018099848
0.00019329437
0.00019342326
0.00020473782
0.0001938299
7.1401413e-05
8.2706365e-05
7.8421167e-05
5.559666e-05
6.6195569e-05
7.1987389e-05
0.00016833026
0.00016484773
0.00015933589
0.00012256377
0.00014915489
0.00014457418
7.7423775e-05
8.4701262e-05
8.6579562e-05
7.8581215e-05
8.9071257e-05
8.785902e-05
0.00013261773
0.00015465932
0.00014554947
0.00012503962
0.00012943288
0.00013751599
0.00015813976
0.0001636836
0.00017252171
0.00016581323
0.00017114168
0.00017943993
0.00017457229
0.00018807819
0.00017968872
0.00018769029
0.00019227304
0.00018399873
0.00038721728
0.0029203453
0.00024664853
0.00015947951
0.00050202358
0.00087192937
0.00028408596
0.001129588
0.0020864534
0.00054700715
0.00051779788
0.0015340123
0.00078420467
6.4761463e-05
6.7233255e-05
6.197774e-05
8.6452198e-05
9.3244098e-05
0.00029795705
0.00013182116
0.0001314303
5.311228e-05
0.00010026677
0.00013273196
0.00035416449
0.001061514
7.7175579e-05
0.000203299
0.0045629007
0.017743892
0.0029010024
0.0031243638
1.2185443e-05
1.6734967e-05
1.0797758e-05
1.5220629e-07
1.1616692e-07
2.2294627e-07
2.3132282e-07
1.7267581e-06
1.3684577e-08
8.4856995e-05
1.2605246e-06
1.6716822e-07
1.0383644e-07
2.6007837e-07
2.1426415e-07
1.1753678e-05
4.3015332e-08
6.7791878e-05
1.5280932e-05
1.6699215e-05
1.178403e-05
1.0759867e-05
3.1608147e-05
3.6440166e-05
2.3933971e-05
2.1851158e-05
8.3712671e-06
8.4745236e-06
0.00025549707
0.00015307805
0.00014079804
0.00030620932
0.00028039081
7.2002934e-05
7.9931683e-05
0.00042867831
0.00019768133
0.00011017051
0.00039712005
0.00021557673
0.00010173047
1.1874086e-07
7.682848e-05
1.6865309e-06
9.8110057e-05
1.2908201e-05
1.4385321e-05
7.4560161e-08
0.00010674568
1.232645e-05
4.4067682e-05
8.3780233e-05
0.0004095401
1.399946e-07
0.00016656801
1.2712383e-07
0.00012962065
0.00033438132
2.384197e-07
0.00025677733
2.4108101e-07
5.8911056e-05
2.0616391e-07
8.6952087e-05
9.1357049e-08
3.6612853e-05
1.2142834e-05
0.0001240133
0.00044687928
1.5630435e-07
0.00018138594
1.8142168e-07
0.00011944322
9.0924815e-08
0.0003648615
2.8856016e-07
0.00023521727
1.9872523e-07
1.0292148e-05
9.4036061e-05
7.0567631e-08
1.9131253e-05
5.5063306e-05
1.400372e-05
1.8250066e-05
1.2835024e-05
9.8468229e-06
2.8720984e-05
4.4819325e-05
2.6208219e-05
1.9971593e-05
9.1712413e-06
9.0802516e-06
0.00062173532
0.0005322865
0.00022831316
0.00039933958
0.0001899667
0.00055431763
0.00018014922
0.00022271388
0.00016738276
3.3230623e-05
2.8937005e-05
2.7264494e-05
2.3220305e-05
2.2311935e-05
2.7643553e-05
2.7303137e-05
2.531879e-05
2.5898549e-05
2.8274338e-05
2.8474553e-05
3.5537386e-05
3.8942156e-05
5.1946888e-05
5.7352914e-05
7.7502886e-05
8.6150269e-05
0.00011782869
0.00013046806
0.00017777642
0.00019617807
0.00026021295
0.00028112569
0.00049535918
0.00029739859
0.00026697145
0.00020087688
0.00062341047
0.0010555198
0.00023741149
0.00058656831
0.00090078271
0.00098930671
0.00027550655
0.000298989
0.00033344707
0.00043087429
0.00035984398
2.2839542e-05
2.7505431e-05
2.5100594e-05
0.00020853203
0.00015725119
0.00017443758
0.00012255662
0.00013740159
0.00088714842
0.00026887477
2.8313602e-05
0.00027428007
0.00015875368
0.00018461514
0.00016007321
0.00018363233
0.00024029982
0.00019736498
0.00017761849
0.0001435707
0.00015381259
0.00030197301
0.00018434026
0.00024781855
2.1935725e-05
2.714657e-05
2.5695337e-05
8.3966391e-05
9.4903273e-05
0.00014138398
0.00012986945
0.00028936839
0.00028703913
0.00019719143
0.00021662525
6.353208e-05
5.7177132e-05
3.8740858e-05
4.2988407e-05
2.9032984e-05
3.063354e-05
0.00025601928
0.00024970774
0.0002851876
0.00029865797
0.00018176636
0.00016742663
0.0002157512
0.00022528572
0.00030997658
0.00028282474
0.00025118128
0.00030093421
0.00028690148
0.00033226997
0.00044005033
0.00021285176
0.00022429356
0.00014791463
2.2968994e-05
0.00018673173
2.7068431e-05
2.3688662e-05
0.00087687922
2.7306642e-05
0.00015029164
0.00012149722
0.0010653305
0.00020888469
0.00026329633
0.00019612866
0.00024919526
2.3828409e-05
3.1237584e-05
2.1916534e-05
1.6930197e-05
0.0011780843
0.00021787468
0.0002932389
0.00027819852
0.00017042223
0.00076579112
0.00015721796
0.00066767418
0.00013273175
0.0004903842
4.9097011e-05
8.5038944e-05
0.00025467818
0.00016587423
0.00018967255
4.4947566e-05
3.4067068e-05
2.1378692e-05
2.2024186e-05
2.6026412e-05
2.5552241e-05
1.6922288e-05
0.00014102939
1.5678771e-05
0.00047559389
7.5404185e-05
0.00010845277
0.00015654237
0.00012031529
0.0002922194
0.00027802648
0.00020959444
0.00025092924
8.3087701e-05
5.3746417e-05
0.00021381242
3.6183307e-05
4.8720935e-05
3.2829242e-05
4.2367766e-05
0.00056690812
0.0002689454
0.00047736795
0.00060821962
0.00021447666
1.9373307e-05
2.9235252e-05
3.025344e-05
2.3993749e-05
2.1123714e-05
2.7913305e-05
2.6894924e-05
2.468658e-05
2.6425127e-05
2.8112864e-05
2.881642e-05
3.2699584e-05
4.2817228e-05
4.7118183e-05
6.3301776e-05
6.9927592e-05
9.5802566e-05
0.00010635814
0.00014466378
0.00016053537
0.00021608251
0.00023799694
0.00038079714
0.00030670212
0.00037529344
0.0002870348
0.00027749125
0.0002030364
0.00025175076
0.00020595555
9.2990671e-05
0.00029238135
0.00028980478
5.6501839e-05
4.9043041e-05
0.00020052343
0.00021435694
0.00023507928
0.00022632313
2.3707188e-05
2.1711915e-05
2.7806225e-05
2.6841895e-05
2.4414259e-05
2.444835e-05
0.000102568
0.00014638956
0.00024331324
0.00030503544
4.227236e-05
2.8044763e-05
2.7134092e-05
0.00012970173
0.00027094468
0.00026637344
0.00029177933
0.00030572058
0.00018671665
0.00016185094
0.00024523236
0.00025751079
1.7554221e-05
2.0851502e-05
2.0695143e-05
2.6479023e-05
2.6722699e-05
2.498812e-05
2.6238278e-05
7.5736239e-05
8.3780724e-05
0.0001123534
0.00010597081
0.000156839
0.00014080559
0.00015477841
0.00011770247
0.00027603133
0.00030557649
0.00030294575
0.00026382332
0.00017705299
0.00020274829
0.00022540778
0.0002392354
6.9756528e-05
6.5165416e-05
5.9240183e-05
5.1861864e-05
3.5878209e-05
3.8861793e-05
5.08023e-05
4.7425903e-05
2.8054916e-05
3.0548677e-05
3.4035547e-05
3.1905448e-05
0.00046844499
0.00055699921
0.00046000833
0.00032611164
0.00029145322
0.00035497599
0.0005240792
0.00039658441
0.00043354366
0.00011475962
0.00026183585
0.00020706573
0.00020197566
0.00024235996
2.6120641e-05
2.8445622e-05
1.9995708e-05
1.8434897e-05
0.00027078217
0.00025695431
0.0003222445
0.00030463214
0.00019446068
0.00014448252
0.00014831389
0.00013384593
5.3593776e-05
6.0177023e-05
0.00020558984
0.00017472244
0.00023419181
0.00018217346
4.0901921e-05
3.7464284e-05
1.3957875e-05
1.4399392e-05
7.8402274e-05
6.9982355e-05
4.0468003e-05
5.6209564e-05
2.8308246e-05
4.3597508e-05
5.4013134e-05
3.9913815e-05
4.4060577e-05
0.00010496931
7.650428e-05
5.2006299e-05
0.00017606102
7.6365824e-05
0.00013631714
0.00023241913
0.00020934259
0.00017094123
3.5309251e-05
3.3091466e-05
1.833547e-05
0.00010999815
6.3720817e-05
0.0001333246
6.5019337e-05
6.4112934e-05
0.00013059617
2.6422658e-05
2.123596e-05
2.1486308e-05
2.1596371e-05
2.4368563e-05
2.5605582e-05
2.9610214e-05
3.3133142e-05
3.4942323e-05
3.6174772e-05
2.5605484e-05
2.7518329e-05
2.8174665e-05
3.1162622e-05
2.8448452e-05
3.2673668e-05
2.239052e-05
0.0069250682
7.5248778e-05
0.00018707837
0.0001015316
0.00010585215
9.5846135e-05
1.6775746e-05
5.4435191e-05
5.705842e-05
0.0001425705
6.455152e-05
4.2332309e-05
1.1128355e-05
0.0001325208
2.1637642e-05
9.0992083e-05
3.8527937e-05
0.00015269423
1.4710374e-05
1.7969557e-05
0.00066310432
0.0006048261
0.0010781549
0.0026841442
0.00043600654
2.3761643e-06
1.6701308e-06
1.1789152e-08
1.753886e-08
5.5941494e-06
1.2771312e-08
1.2354187e-08
1.6901625e-08
7.5606134e-06
1.5387513e-08
2.3027144e-07
1.8083925e-06
1.5213213e-06
1.6135653e-06
1.4999469e-06
1.551527e-06
2.8280965e-06
2.3222939e-06
1.6718117e-05
1.5809618e-05
2.2891655e-05
2.4448098e-05
1.9839607e-05
1.3261124e-05
2.1039322e-05
1.2073921e-05
5.5604066e-06
1.0726643e-08
1.7687038e-05
1.2911229e-08
1.4953487e-05
1.9727778e-05
6.6954631e-07
2.3610392e-05
5.6851281e-08
1.872466e-05
1.1680248e-08
1.412591e-05
1.0321664e-08
4.5308308e-06
2.232096e-05
1.3532817e-08
9.7828072e-06
3.0342622e-08
1.6219311e-06
1.4423932e-06
1.7216709e-06
1.4274715e-06
1.5585936e-06
3.4755455e-06
1.929672e-06
2.7062592e-05
2.5373984e-05
1.8656749e-05
2.5771921e-05
2.3516213e-05
2.1123059e-05
2.6998742e-05
2.854931e-05
1.0175611e-05
1.1457694e-05
1.0815149e-05
3.4533731e-05
3.2516349e-05
3.4087242e-06
2.6561599e-05
3.2908774e-06
2.251445e-05
3.1614448e-06
4.1990773e-05
1.1603624e-05
3.4352515e-06
3.8910841e-05
3.9965217e-05
3.8006628e-05
3.933397e-05
9.8503858e-06
1.1368929e-05
1.0980985e-05
4.0038817e-06
3.392794e-06
3.9847421e-06
3.3219168e-06
3.8613367e-06
3.8992936e-06
3.6735444e-06
3.0837719e-06
3.515958e-06
1.1639357e-05
4.0412666e-06
3.4426444e-06
4.0569437e-06
3.3104055e-06
3.5378599e-06
3.329128e-05
3.2395723e-05
2.2503749e-05
2.0805785e-05
2.5160593e-05
6.5198453e-06
8.9479117e-06
7.482523e-06
2.1927395e-05
2.3605139e-05
2.4536557e-05
7.1082782e-06
6.0824524e-06
6.7087271e-06
9.0186963e-06
8.2798359e-06
1.1647791e-05
2.2413652e-05
5.0817803e-06
4.9825282e-06
3.6947806e-06
3.9185578e-06
3.9584309e-06
3.9372109e-06
3.9551005e-06
4.1006432e-06
6.2672166e-06
3.8047e-06
3.8433326e-06
3.530087e-06
3.4084659e-06
1.1165803e-05
7.4272032e-06
7.2039906e-06
5.7281998e-06
8.0623231e-06
1.3289005e-05
4.7759146e-06
6.1233587e-06
7.4742382e-06
4.5288548e-06
8.0960887e-06
2.2030148e-05
2.0615344e-05
9.596831e-06
1.0613621e-05
9.7992544e-06
8.5405068e-06
9.6444627e-06
1.0689323e-05
9.4427303e-06
8.7269336e-06
2.403938e-06
2.8728859e-06
2.3406832e-06
2.7141037e-06
6.7518642e-06
8.1173842e-06
1.0364351e-05
1.0249146e-05
5.8133129e-06
3.1425758e-06
4.4700566e-06
4.4038028e-06
4.2378636e-06
4.3712953e-06
2.6961052e-06
4.1685186e-06
3.4284447e-06
4.9050475e-06
7.4032388e-06
1.0503792e-05
7.9759381e-06
1.0987707e-05
1.0993283e-05
4.4843904e-06
4.5973715e-06
4.6501335e-06
4.9573465e-06
4.6332265e-06
4.3774246e-06
4.3095595e-06
4.3916759e-06
4.758751e-06
1.0423212e-05
2.702826e-05
9.3239716e-06
1.1524574e-05
2.9666259e-05
1.0543062e-05
2.9507014e-05
9.9681747e-06
1.0631027e-05
2.7530372e-05
2.7974414e-05
7.2769868e-06
3.4207058e-06
4.1425442e-06
4.2767931e-06
3.2556371e-06
4.0705516e-06
3.4632171e-06
3.2143097e-06
1.0607723e-05
7.4124297e-06
1.1570893e-05
2.9774018e-05
1.0779363e-05
2.9829341e-05
3.4290929e-06
9.216413e-06
9.1168569e-06
8.8902204e-06
9.3792953e-06
1.0462381e-05
1.1258978e-05
2.9036012e-05
2.9296792e-05
1.0117085e-05
1.1129172e-05
2.8727158e-05
2.8372981e-05
4.0185861e-06
4.4528054e-06
3.3729307e-06
4.4309587e-06
3.9608742e-06
3.3492735e-06
3.8169794e-06
4.2897973e-06
3.9323728e-06
4.3334386e-06
3.7602471e-06
4.0569225e-06
2.9568057e-06
3.8448941e-06
3.215005e-06
3.7141474e-05
3.378542e-05
3.8427227e-05
3.2910254e-05
3.9073307e-05
4.059796e-05
1.0882292e-05
1.1714973e-05
2.9708728e-05
2.9823833e-05
4.0300978e-06
4.5029151e-06
3.457175e-06
4.5381311e-06
4.0831298e-06
3.0476117e-05
3.4236902e-05
3.3630728e-05
3.3715477e-05
3.7918854e-05
3.7799125e-05
3.3501611e-05
3.3319443e-05
3.7446759e-05
3.7648826e-05
3.1094153e-05