/*--------------------------------*- C++ -*----------------------------------*\
  =========                 |
  \\      /  F ield         | OpenFOAM: The Open Source CFD Toolbox
   \\    /   O peration     | Website:  https://openfoam.org
    \\  /    A nd           | Version:  8
     \\/     M anipulation  |
\*---------------------------------------------------------------------------*/
/*   Windows 32 and 64 bit porting by blueCAPE: http://www.bluecape.com.pt   *\
|  Based on Windows porting (2.0.x v4) by Symscape: http://www.symscape.com   |
\*---------------------------------------------------------------------------*/
FoamFile
{
    version     2.0;
    format      ascii;
    class       labelListList;
    location    "constant/vegetation";
    object      globalFaceFaces;
}
// * * * * * * * * * * * * * * * * * * * * * * * * * * * * * * * * * * * * * //


915
(

2210
(
17
18
19
20
21
22
23
1028
2271
3081
3391
3392
3393
3394
3395
3396
3397
3398
3399
3400
3401
3402
3403
3404
3405
3406
3407
3408
3409
3410
3411
3412
3413
3414
3415
3416
3417
3418
3419
3420
3421
3422
3423
3424
3425
3426
3427
3428
3429
3430
3431
3432
3433
3434
3435
3437
3438
3439
3440
3441
3442
3443
3444
3445
3446
3447
3448
3449
3450
3457
3458
3459
3460
3461
3462
3463
3464
3465
3466
3467
3468
3470
3473
3475
3476
3478
3481
3484
3487
3490
3493
3495
3500
3503
3506
3515
3572
3573
3574
3575
3578
3579
3580
3581
3599
3602
3603
3604
3605
3606
3615
3616
3628
3642
3643
3644
3645
3646
3647
3648
3649
3650
3651
3652
3654
3655
3662
3665
3666
3667
3668
3669
3670
3671
3673
3684
3685
3686
3687
3688
3689
3690
3691
3692
3693
3694
3695
3696
3697
3699
3700
3726
3727
3728
3730
3731
3732
3733
3734
3735
3736
3737
3738
3739
3740
3741
3742
3743
3744
3745
3746
3747
3748
3749
3750
3751
3752
3753
3754
3755
3756
3757
3758
3759
3760
3761
3762
3763
3764
3765
3766
3767
3769
3770
3771
3772
3773
3776
3779
3780
3781
3782
3783
3788
3789
3790
3791
3793
3794
3795
3796
3797
3798
3799
3800
3801
3802
3803
3804
3805
3815
3816
3817
3824
3828
3840
3845
3847
3853
3860
3864
3866
3867
3871
3872
3888
3889
3890
3894
3895
3896
3897
3898
3899
3900
3901
3902
3903
3904
3905
3906
3907
3908
3909
3911
3912
3913
3914
3933
3934
3935
3936
3937
3938
3939
3940
3941
3942
3943
3944
3966
3968
4028
4290
4291
4344
4515
4516
4539
4540
4541
4543
4544
4545
4547
4548
4549
4550
4553
4554
4556
4557
4558
4559
4560
4561
4562
4563
4564
4567
4568
4569
4573
4577
4579
4580
4582
4583
4587
4588
4591
4592
4593
4595
4596
4709
4710
4712
4719
4799
5091
5092
5093
5094
5095
5096
5097
5098
5100
5101
5102
5103
5104
5105
5106
5107
5108
5109
5111
5112
5113
5114
5115
5116
5117
5118
5119
5120
5121
5122
5123
5124
5125
5126
5127
5128
5129
5130
5131
5137
5138
5139
5155
5156
5157
5158
5159
5160
5161
5162
5163
5164
5165
5166
5167
5168
5169
5170
5171
5172
5173
5174
5175
5176
5177
5178
5179
5180
5181
5182
5183
5184
5185
5186
5187
5188
5189
5190
5191
5192
5194
5195
5196
5197
5198
5199
5200
5201
5202
5203
5204
5205
5206
5207
5210
5211
5212
5213
5214
5215
5216
5217
5220
5221
5222
5223
5224
5225
5226
5227
5228
5229
5236
5237
5240
5249
5255
5257
5259
5260
5264
5265
5266
5267
5272
5284
5292
5294
5300
5301
5303
5305
5306
5307
5308
5316
5338
5354
5355
5356
5357
5362
5363
5369
5370
5377
5391
5392
5402
5406
5411
5415
5426
5427
5432
5433
5434
5435
5448
5449
5450
5459
5460
5465
5466
5467
5468
5510
5511
5523
5524
5525
5536
5537
5538
5539
5540
5541
5547
5548
5549
5550
5551
5552
5553
5554
5555
5556
5557
5558
5559
5560
5561
5562
5563
5564
5565
5566
5567
5568
5569
5570
5571
5572
5573
5574
5575
5576
5577
5578
5579
5580
5581
5582
5583
5584
5585
5586
5587
5588
5589
5590
5591
5592
5593
5594
5595
5596
5597
5598
5599
5600
5601
5602
5603
5604
5605
5606
5607
5608
5609
5610
5611
5613
5614
5615
5616
5617
5618
5619
5620
5622
5623
5624
5625
5626
5628
5629
5630
5631
5632
5634
5635
5637
5638
5639
5640
5641
5643
5644
5645
5646
5647
5649
5650
5652
5653
5654
5655
5656
5657
5658
5659
5660
5661
5662
5663
5664
5665
5666
5667
5668
5669
5670
5671
5672
5673
5674
5675
5676
5677
5678
5679
5680
5682
5683
5684
5685
5686
5689
5690
5691
5693
5694
5695
5696
5697
5700
5701
5702
5703
5704
5705
5707
5708
5709
5710
5711
5713
5714
5715
5716
5717
5718
5719
5720
5721
5722
5723
5725
5726
5727
5728
5729
5731
5732
5733
5734
5735
5736
5737
5738
5739
5740
5741
5743
5744
5745
5746
5747
5748
5749
5750
5752
5753
5754
5755
5756
5757
5758
5759
5760
5761
5762
5763
5764
5765
5766
5767
5768
5770
5772
5773
5774
5775
5776
5777
5778
5779
5780
5781
5782
5783
5785
5788
5791
5794
5796
5797
5798
5799
5800
5801
5802
5803
5804
5805
5806
5807
5808
5809
5810
5812
5813
5814
5815
5816
5817
5818
5819
5820
5822
5823
5824
5825
5826
5827
5828
5833
5834
5839
5842
5843
5844
5845
5846
5847
5848
5849
5850
5851
5852
5853
5854
5855
5856
5857
5858
5859
5860
5861
5862
5863
5864
5869
5870
5871
5872
5873
5874
5875
5876
5877
5878
5879
5880
5883
5884
5885
5886
5887
5888
5889
5890
5891
5892
5893
5894
5900
5901
5902
5903
5904
5905
5908
5909
5910
5911
5912
5913
5916
5917
5918
5919
5920
5921
5922
5923
5924
5925
5926
5927
5928
5929
5930
5931
5932
5933
5934
5935
5936
5948
5949
5955
5956
5957
5962
5963
5964
5965
5966
5969
5971
5974
5975
5976
5977
5979
5980
5987
5989
5990
5991
5992
5993
5994
5996
5997
5998
6001
6003
6004
6006
6007
6008
6009
6010
6011
6012
6013
6014
6015
6016
6019
6022
6023
6024
6026
6027
6028
6029
6030
6031
6034
6035
6036
6039
6040
6047
6048
6049
6050
6051
6052
6177
6178
6188
6189
6203
7301
7381
7383
7385
7386
7416
7418
7419
7420
7448
7449
7450
7453
7485
7486
7511
7512
7514
7518
7555
7576
7577
7578
7579
7580
7581
7582
7603
7643
7644
7645
7646
7647
7648
7686
7699
7702
7705
7731
7735
7736
7737
7748
7769
7770
7771
8291
8292
8293
8294
8295
8296
8297
8298
8299
8300
8301
8302
8303
8304
8305
8306
8307
8308
8309
8310
8311
8312
8313
8314
8315
8316
8317
8318
8319
8320
8321
8322
8323
8324
8325
8326
8327
8328
8329
8330
8331
8332
8333
8334
8335
8336
8337
8338
8339
8340
8341
8342
8343
8344
8345
8346
8347
8348
8349
8350
8351
8352
8353
8354
8355
8356
8357
8358
8359
8360
8361
8362
8363
8364
8365
8366
8367
8368
8369
8370
8371
8372
8373
8374
8375
8376
8377
8378
8379
8380
8381
8382
8383
8384
8385
8668
8669
8670
8671
8672
8673
8674
8675
8676
8677
8678
8679
8680
8681
8682
8683
8684
8685
8686
8687
8688
8689
8690
8691
8692
8693
8694
8695
8696
8697
8698
8699
8700
8701
8702
8703
8704
8705
8706
8707
8708
8709
8710
8711
8712
8713
8714
8715
8716
8717
8718
8719
8720
8721
8722
8723
8724
8725
8726
8727
8728
8729
8730
8731
8732
8733
8734
8735
8736
8737
8738
8739
8740
8741
8742
8743
8744
8745
8746
8747
8748
8749
8750
8751
8753
8754
8756
8757
8758
8759
8760
8762
8763
8764
8765
8766
8768
8769
8771
8772
8773
8774
8775
8776
8778
8779
8780
8781
8782
8783
8784
8789
8790
8791
8792
8793
8794
8799
8800
8801
8802
8803
8804
8813
8814
8815
8817
8818
8819
8820
8821
8826
8827
8828
8829
8830
8831
8842
8844
8845
8846
8847
8896
8897
8898
8900
8901
8902
8903
8904
8906
8907
8908
8909
8910
8911
8912
8913
8914
8915
8916
8918
8919
8920
8921
8922
8923
8924
8925
8927
8928
8929
8930
8931
8934
8935
8936
8937
8938
8939
8940
8941
8942
8943
8944
8945
8946
8947
8948
8950
8951
8952
8953
8954
8955
8956
8957
8958
8962
8963
8964
8965
8966
8967
8968
8969
8970
8971
8972
8973
8974
8975
8977
8978
8980
8981
8982
8983
8984
8985
8986
8987
8988
8989
8990
8991
8992
8994
8995
8996
8997
9035
9036
9044
9046
9047
9048
9049
9050
9051
9052
9053
9054
9055
9056
9057
9058
9059
9060
9061
9062
9063
9064
9065
9066
9070
9071
9072
9073
9074
9075
9076
9077
9078
9079
9080
9081
9082
9083
9084
9085
9086
9087
9088
9089
9090
9095
9096
9097
9098
9099
9100
9101
9102
9103
9104
9105
9106
9107
9108
9109
9110
9111
9112
9161
9162
9163
9164
9165
9166
9167
9168
9169
9170
9171
9172
9175
9176
9177
9178
9179
9180
9207
9208
9209
9211
9213
9214
9215
9216
9217
9218
9219
9220
9221
9222
9224
9226
9227
9228
9229
9230
9231
9232
9237
9238
9239
9240
9241
9242
9243
9244
9245
9246
9265
9267
9269
9270
9271
9272
9273
9274
9275
9276
9277
9278
9279
9281
9282
9286
9287
9288
9289
9290
9291
9292
9293
9294
9295
9296
9297
9298
9299
9300
9301
9302
9303
9304
9305
9306
9307
9308
9309
9310
9311
9312
9313
9314
9315
9317
9318
9319
9322
9323
9336
9337
9338
9339
9340
9341
9342
9343
9344
9345
9346
9347
9348
9349
9350
9351
9352
9353
9354
9355
9356
9357
9358
9359
9361
9362
9363
9364
9368
9369
9370
9371
9372
9373
9374
9375
9376
9377
9378
9379
9380
9381
9382
9383
9384
9385
9386
9387
9389
9396
9400
9401
9567
9570
9598
9600
9602
9604
9606
9608
9610
9612
9614
9616
9620
9624
9628
9632
9636
9640
9644
9649
9650
9651
9652
9653
9654
9655
9656
9657
9658
9659
9660
9661
9662
9663
9664
9665
9666
9667
9668
9669
9670
9671
9672
9673
9674
9675
9676
9677
9682
9683
9684
9685
9686
9687
9688
9689
9690
9691
9692
9693
9696
9697
9699
9700
9701
9702
9703
9704
9705
9706
9707
9708
9709
9717
9718
9719
9720
9721
9722
9763
9764
9765
9766
9771
9772
9773
9774
9792
9793
9794
9795
9796
9797
9798
9799
9800
9801
9802
9803
9804
9805
9806
9807
9808
9809
9810
9811
9812
9813
9814
9815
9816
9817
9818
9819
9820
9821
9822
9823
9824
9825
9826
9827
9828
9829
9830
9831
9832
9833
9834
9835
9836
9837
9838
9839
9840
9841
9842
9843
9844
9845
9846
9847
9848
9849
9850
9851
9852
9853
9854
9855
9856
9857
9858
9859
9860
9861
9910
9911
9912
9913
9923
9924
9925
9926
9927
9928
9929
9930
9931
9932
9934
9936
9938
9940
9942
9944
9946
9948
9949
9950
9951
9952
9953
9954
9955
9956
9957
9958
9959
9960
9961
9962
9963
9966
9967
9968
9969
9974
9975
9976
9977
9978
9979
9980
9981
9982
9983
9986
9987
9988
9989
9990
9991
9992
9993
9995
9996
9997
9998
9999
10000
10001
10002
10003
10004
10005
10006
10007
10008
10009
10010
10011
10012
10013
10014
10015
10016
10017
10018
10019
10020
10021
10025
10026
10027
10028
10029
10030
10031
10032
10033
10034
10035
10036
10037
10038
10039
10040
10041
10042
10043
10044
10045
10069
10070
10071
10072
10073
10074
10075
10076
10077
10078
10079
10080
10081
10084
10085
10086
10087
10088
10089
10090
10091
10092
10093
10094
10095
10096
10097
10106
10107
10108
10109
10110
10111
10112
10113
10114
10115
10116
10117
10118
10119
10120
10121
10122
10123
10124
10125
10126
10142
10143
10144
10147
10148
10166
10488
10520
10521
10523
10586
10587
10596
10597
10598
10601
10602
10603
10604
10605
10607
10608
10622
11316
11318
11320
11321
11323
11324
11326
11327
11328
11329
11332
11333
11334
11335
11338
11339
11341
11342
11343
11344
11346
11347
11348
11349
11350
11360
11364
11366
11367
11368
11369
11374
11375
11376
11377
11392
11393
11394
11395
11396
11397
11398
11399
11400
11401
11402
11403
11404
11405
11406
11407
11410
11411
11412
11413
11414
11415
11416
11417
11418
11421
11422
11423
11424
11425
11426
11427
11438
11439
11440
11441
11442
11443
11444
11445
11446
11447
11448
11453
11458
11460
11478
11540
11541
11551
11552
11553
11554
11555
11567
11569
11570
11572
11573
11575
11576
11600
11602
11603
11604
11605
11627
11628
11629
11630
11631
11633
11634
11636
11637
11638
11639
11641
11642
11643
11644
11646
11659
11663
11704
11705
11708
11709
11710
11711
11722
11727
11728
11729
11730
11731
11774
11775
11776
11777
11778
11779
11792
11793
11794
11796
11803
11804
11805
11806
11811
11818
11819
11820
11821
11822
11847
11848
11875
11877
11879
11881
11889
11891
11893
11917
11952
11953
11954
11955
11956
11957
11960
11961
11963
11964
11965
11966
11967
11968
11969
11970
11971
11972
11973
11974
11975
11976
11977
11978
11979
11980
11981
11982
11983
11984
11985
11986
11987
11988
11989
11990
11991
11992
11993
11994
11995
11996
11997
11998
11999
12000
12001
12002
12003
12004
12005
12006
12007
12008
12009
12010
12011
12012
12013
12014
12015
12016
12017
12018
12019
12020
12021
12022
12023
12024
12025
12026
12027
12028
12029
12030
12031
12032
12033
12034
12035
12036
12037
12038
12039
12040
12041
12042
12043
12044
12045
12046
12047
12048
12049
12066
12067
12068
12069
12070
12073
12074
12075
12076
12077
12078
12079
12080
12081
12082
12083
12084
12085
12086
12087
12088
12089
12090
12091
12092
12093
12094
12095
12096
12097
12099
12100
12103
12104
12105
12106
12107
12109
12110
12112
12113
12114
12115
12116
12118
12120
12122
12124
12125
12126
12127
12128
12129
12130
12132
12162
12163
12164
12165
12167
12168
12178
12179
12180
12181
12184
12185
12186
12187
12202
12203
12212
12214
12215
12216
12217
12218
12219
12220
12221
12222
12223
12224
12225
12232
12233
12234
12235
12236
12237
12238
12243
12244
12245
12246
12247
12248
12249
12250
12253
12254
12258
12259
12260
12261
12262
12263
12264
12265
12284
12285
12305
12306
12307
12308
12322
12323
12324
12325
12326
12327
12328
12329
12333
12334
12335
12336
12337
12349
12350
12368
12369
12370
)


1809
(
3391
3392
3393
3394
3395
3396
3397
3398
3399
3400
3401
3402
3403
3404
3405
3406
3407
3408
3409
3410
3411
3412
3413
3414
3415
3416
3417
3418
3419
3420
3421
3422
3423
3424
3425
3426
3427
3428
3429
3430
3431
3432
3433
3434
3435
3437
3438
3439
3440
3441
3442
3443
3444
3445
3446
3447
3448
3449
3450
3452
3459
3460
3463
3465
3466
3468
3475
3481
3490
3495
3503
3684
3685
3699
3700
3769
3770
3794
3795
3796
3968
4539
4540
4541
4544
4545
4547
4548
4549
4550
4554
4557
4558
4559
4560
4561
4562
4563
4567
4568
4569
4577
4579
4580
4582
4587
4591
4593
4595
4596
4709
4712
4719
5091
5092
5093
5094
5095
5096
5097
5098
5100
5101
5102
5103
5104
5105
5106
5107
5108
5109
5111
5112
5113
5114
5115
5116
5117
5118
5119
5120
5121
5122
5124
5125
5126
5127
5129
5130
5131
5134
5137
5138
5139
5144
5155
5156
5157
5158
5159
5160
5161
5162
5163
5164
5165
5166
5167
5168
5169
5170
5171
5173
5174
5175
5176
5177
5178
5179
5180
5181
5182
5183
5184
5185
5186
5187
5188
5189
5190
5191
5192
5194
5195
5196
5197
5198
5199
5200
5201
5202
5203
5204
5205
5206
5207
5210
5211
5212
5213
5214
5215
5216
5217
5220
5221
5222
5223
5224
5225
5226
5227
5228
5229
5237
5265
5292
5308
5357
5369
5370
5391
5392
5402
5406
5459
5460
5468
5547
5549
5550
5556
5558
5559
5560
5561
5562
5563
5564
5565
5566
5569
5571
5572
5573
5574
5575
5576
5577
5578
5583
5584
5585
5586
5587
5588
5589
5590
5591
5592
5593
5595
5598
5600
5601
5602
5603
5604
5605
5607
5608
5610
5611
5618
5628
5629
5630
5631
5632
5634
5635
5637
5638
5639
5640
5641
5643
5644
5645
5646
5647
5649
5650
5652
5653
5654
5655
5656
5665
5671
5672
5673
5674
5675
5676
5677
5678
5679
5680
5703
5704
5705
5707
5708
5709
5710
5711
5713
5714
5715
5716
5717
5718
5719
5720
5721
5722
5723
5725
5726
5727
5728
5729
5731
5732
5733
5734
5735
5736
5737
5738
5739
5740
5741
5743
5744
5745
5746
5747
5748
5749
5750
5752
5753
5754
5755
5756
5760
5761
5762
5764
5770
5772
5773
5774
5775
5776
5777
5796
5810
5812
5813
5814
5815
5824
5825
5826
5827
5828
5839
5847
5853
5854
5855
5856
5857
5858
5859
5860
5861
5862
5863
5864
5872
5874
5884
5900
5901
5902
5903
5904
5905
5908
5909
5910
5911
5912
5913
5916
5917
5918
5919
5920
5921
5922
5923
5924
5925
5962
5963
5964
5965
5966
5970
5971
5972
5974
5975
5976
5977
5978
5983
5984
5987
5989
5990
5991
5992
5993
5996
5997
5998
6003
6004
6008
6011
6013
6014
6018
6022
6027
6028
6029
6030
6031
6036
6037
6038
6039
6047
6048
6049
6050
6051
6052
6176
6188
6189
8291
8292
8293
8294
8295
8296
8297
8298
8299
8300
8301
8302
8303
8304
8305
8306
8307
8308
8309
8310
8311
8312
8313
8314
8315
8316
8317
8318
8320
8322
8323
8324
8325
8326
8327
8328
8329
8330
8331
8332
8333
8334
8335
8336
8337
8338
8339
8340
8341
8342
8343
8344
8345
8346
8347
8348
8349
8350
8351
8352
8353
8354
8355
8356
8357
8358
8359
8360
8361
8362
8363
8364
8365
8366
8367
8368
8369
8370
8371
8372
8373
8374
8375
8376
8377
8378
8379
8380
8381
8382
8383
8384
8385
8668
8669
8670
8671
8672
8673
8674
8675
8676
8677
8678
8679
8680
8681
8682
8683
8684
8685
8686
8687
8688
8689
8690
8691
8692
8693
8694
8695
8696
8697
8698
8699
8700
8701
8702
8703
8704
8705
8706
8707
8708
8709
8710
8711
8712
8713
8714
8715
8716
8717
8718
8719
8720
8721
8722
8723
8724
8725
8726
8727
8728
8729
8730
8731
8732
8733
8734
8735
8736
8737
8738
8739
8740
8741
8742
8743
8744
8745
8746
8747
8748
8749
8750
8751
8753
8754
8756
8757
8758
8759
8760
8762
8763
8764
8765
8766
8768
8769
8771
8772
8773
8774
8775
8776
8778
8779
8780
8781
8782
8783
8784
8789
8790
8791
8792
8793
8794
8799
8800
8801
8802
8803
8804
8813
8814
8815
8817
8818
8819
8820
8821
8826
8827
8828
8829
8830
8831
8842
8844
8845
8846
8847
8896
8897
8898
8900
8901
8902
8903
8904
8906
8907
8908
8909
8910
8911
8912
8913
8914
8915
8916
8918
8919
8920
8921
8922
8923
8924
8925
8927
8928
8929
8930
8931
8934
8935
8936
8937
8938
8939
8940
8941
8942
8943
8944
8945
8946
8947
8948
8950
8951
8952
8953
8954
8955
8956
8957
8958
8962
8963
8964
8965
8966
8967
8968
8969
8970
8971
8972
8973
8974
8975
8977
8978
8980
8981
8982
8983
8984
8985
8986
8987
8988
8989
8990
8991
8992
8994
8995
8996
8997
9035
9036
9044
9046
9047
9048
9049
9050
9051
9052
9053
9054
9055
9056
9057
9058
9059
9060
9061
9062
9063
9064
9065
9066
9070
9071
9072
9073
9074
9075
9076
9077
9078
9079
9080
9081
9082
9083
9084
9085
9086
9087
9088
9089
9090
9095
9096
9097
9098
9099
9100
9101
9102
9103
9104
9105
9106
9107
9108
9109
9110
9111
9112
9161
9162
9163
9164
9165
9166
9167
9168
9169
9170
9171
9172
9175
9176
9177
9178
9179
9180
9207
9208
9209
9211
9213
9214
9215
9216
9217
9218
9219
9220
9221
9222
9224
9225
9226
9227
9228
9229
9230
9231
9232
9237
9238
9239
9240
9241
9242
9243
9244
9245
9246
9265
9267
9269
9270
9271
9272
9273
9274
9275
9276
9277
9278
9279
9281
9282
9286
9287
9288
9289
9290
9291
9292
9293
9294
9295
9296
9297
9298
9299
9300
9301
9302
9303
9304
9305
9306
9307
9308
9309
9310
9311
9312
9313
9314
9315
9317
9318
9319
9320
9321
9322
9323
9324
9326
9327
9330
9336
9337
9338
9339
9340
9341
9342
9343
9344
9345
9346
9347
9348
9349
9350
9351
9352
9353
9354
9355
9356
9357
9358
9359
9361
9362
9363
9364
9368
9369
9370
9371
9372
9373
9374
9375
9376
9377
9378
9379
9380
9381
9382
9383
9384
9385
9386
9387
9389
9396
9400
9401
9567
9570
9598
9600
9602
9604
9606
9608
9610
9612
9614
9616
9620
9624
9628
9632
9636
9640
9644
9649
9650
9651
9652
9653
9654
9655
9656
9657
9658
9659
9660
9661
9662
9663
9664
9665
9666
9667
9668
9669
9670
9671
9672
9673
9674
9675
9676
9677
9682
9683
9684
9685
9686
9687
9688
9689
9690
9691
9692
9693
9696
9697
9699
9700
9701
9702
9703
9704
9705
9706
9707
9708
9709
9717
9718
9719
9720
9721
9722
9763
9764
9765
9766
9771
9772
9773
9774
9792
9793
9794
9795
9796
9797
9798
9799
9800
9801
9802
9803
9804
9805
9806
9807
9808
9809
9810
9811
9812
9813
9814
9815
9816
9817
9818
9819
9820
9821
9822
9823
9824
9825
9826
9827
9828
9829
9830
9831
9832
9833
9834
9835
9836
9837
9838
9839
9840
9841
9842
9843
9844
9845
9846
9847
9848
9849
9850
9851
9852
9853
9854
9855
9856
9857
9858
9859
9860
9861
9910
9911
9912
9913
9923
9924
9925
9926
9927
9928
9929
9930
9931
9932
9934
9936
9938
9940
9942
9944
9946
9948
9949
9950
9951
9952
9953
9954
9955
9956
9957
9958
9959
9960
9961
9962
9963
9966
9967
9968
9969
9974
9975
9976
9977
9978
9979
9980
9981
9982
9983
9986
9987
9988
9989
9990
9991
9992
9993
9995
9996
9997
9998
9999
10000
10001
10002
10003
10004
10005
10006
10007
10008
10009
10010
10011
10012
10013
10014
10015
10016
10017
10018
10019
10020
10021
10025
10026
10027
10028
10029
10030
10031
10032
10033
10034
10035
10036
10037
10038
10039
10040
10041
10042
10043
10044
10045
10069
10070
10071
10072
10073
10074
10075
10076
10077
10078
10079
10080
10081
10084
10085
10086
10087
10088
10089
10090
10091
10092
10093
10094
10095
10096
10097
10106
10107
10108
10109
10110
10111
10112
10113
10114
10115
10116
10117
10118
10119
10120
10121
10122
10123
10124
10125
10126
10129
10131
10133
10134
10137
10138
10142
10143
10144
10147
10148
10151
10152
10157
10164
10165
10166
10167
10169
10171
10172
10175
10176
10181
10182
10184
10488
10520
10521
10522
10523
10526
10586
10587
10596
10597
10598
10599
10600
10601
10602
10603
10604
10605
10606
10607
10608
10609
10610
10611
10612
10622
10663
10664
10670
10673
10735
10737
10739
10746
10747
11316
11318
11320
11321
11323
11324
11326
11327
11328
11329
11332
11333
11334
11335
11338
11339
11341
11342
11343
11344
11346
11347
11348
11350
11360
11364
11366
11367
11368
11369
11374
11375
11376
11377
11392
11393
11394
11395
11396
11397
11398
11399
11400
11401
11402
11403
11404
11405
11406
11407
11410
11411
11412
11413
11414
11415
11416
11417
11418
11421
11422
11423
11424
11425
11426
11427
11438
11439
11440
11441
11442
11443
11444
11445
11446
11447
11448
11453
11458
11460
11478
11540
11541
11551
11552
11553
11554
11555
11567
11569
11570
11572
11573
11575
11576
11600
11602
11603
11604
11605
11627
11628
11629
11630
11631
11633
11634
11636
11637
11638
11639
11641
11642
11643
11644
11646
11659
11663
11704
11705
11708
11709
11710
11711
11722
11727
11728
11729
11730
11731
11774
11775
11776
11777
11778
11779
11792
11793
11794
11796
11803
11804
11805
11806
11811
11818
11819
11820
11821
11822
11847
11848
11875
11877
11879
11881
11889
11891
11893
11917
11952
11953
11954
11955
11956
11957
11960
11961
11963
11964
11965
11966
11967
11968
11969
11970
11971
11972
11973
11974
11975
11976
11977
11978
11979
11980
11981
11982
11983
11984
11985
11986
11987
11988
11989
11990
11991
11992
11993
11994
11995
11996
11997
11998
11999
12000
12001
12002
12003
12004
12005
12006
12007
12008
12009
12010
12011
12012
12013
12014
12015
12016
12017
12018
12019
12020
12021
12022
12023
12024
12025
12026
12027
12028
12029
12030
12031
12032
12033
12034
12035
12036
12037
12038
12039
12040
12041
12042
12043
12044
12045
12046
12047
12048
12049
12063
12065
12066
12067
12068
12069
12070
12071
12072
12073
12074
12075
12076
12077
12078
12079
12080
12081
12082
12083
12084
12085
12086
12087
12088
12089
12090
12091
12092
12093
12094
12095
12096
12097
12099
12100
12101
12102
12103
12104
12105
12106
12107
12108
12109
12110
12111
12112
12113
12114
12115
12116
12117
12118
12119
12120
12121
12122
12123
12124
12125
12126
12127
12128
12129
12130
12131
12132
12162
12163
12164
12165
12167
12168
12178
12179
12180
12181
12184
12185
12186
12187
12202
12203
12210
12212
12213
12214
12215
12216
12217
12218
12219
12220
12221
12222
12223
12224
12225
12232
12233
12234
12235
12236
12237
12238
12243
12244
12245
12246
12247
12248
12249
12250
12253
12254
12258
12259
12260
12261
12262
12263
12264
12265
12277
12278
12280
12283
12284
12285
12298
12300
12302
12303
12304
12305
12306
12307
12308
12322
12323
12324
12325
12326
12327
12328
12329
12333
12334
12335
12336
12337
12349
12350
12368
12369
12370
)


2042
(
17
18
19
20
21
22
23
2087
2088
2268
2270
3081
3391
3392
3395
3396
3397
3398
3399
3400
3401
3402
3403
3404
3405
3406
3407
3408
3409
3410
3411
3412
3413
3414
3415
3416
3417
3418
3419
3420
3421
3422
3423
3424
3425
3426
3427
3428
3429
3430
3431
3432
3433
3434
3435
3436
3437
3438
3439
3440
3441
3442
3443
3444
3445
3446
3447
3448
3449
3450
3452
3453
3454
3456
3457
3458
3459
3460
3461
3462
3463
3464
3465
3466
3467
3468
3469
3470
3471
3472
3473
3474
3475
3476
3477
3478
3479
3480
3481
3482
3483
3484
3485
3486
3487
3488
3489
3490
3491
3492
3493
3494
3495
3496
3497
3498
3499
3500
3501
3502
3503
3504
3505
3506
3507
3508
3509
3510
3511
3512
3513
3514
3515
3516
3517
3518
3519
3520
3521
3522
3523
3524
3525
3548
3549
3550
3572
3573
3574
3575
3578
3579
3580
3581
3599
3600
3601
3602
3603
3604
3605
3606
3607
3608
3609
3610
3611
3613
3614
3615
3616
3617
3618
3619
3620
3621
3622
3623
3624
3625
3626
3627
3628
3629
3631
3632
3633
3634
3635
3636
3640
3641
3642
3643
3644
3645
3646
3647
3648
3649
3650
3651
3652
3653
3654
3655
3656
3657
3659
3660
3661
3662
3663
3664
3665
3666
3667
3668
3669
3670
3671
3672
3673
3674
3676
3677
3680
3681
3682
3684
3685
3686
3687
3688
3689
3690
3691
3692
3693
3694
3695
3696
3697
3699
3700
3701
3702
3703
3704
3705
3714
3715
3716
3726
3727
3728
3730
3731
3732
3733
3734
3735
3736
3737
3738
3739
3740
3741
3742
3743
3744
3745
3746
3747
3748
3749
3750
3751
3752
3753
3754
3755
3756
3757
3758
3759
3760
3761
3762
3763
3764
3765
3766
3767
3769
3770
3771
3772
3773
3774
3775
3776
3778
3779
3780
3781
3782
3783
3788
3789
3790
3791
3793
3794
3795
3796
3797
3798
3799
3800
3801
3802
3803
3804
3805
3806
3807
3808
3809
3810
3811
3812
3813
3814
3815
3816
3817
3818
3819
3820
3821
3822
3823
3824
3825
3826
3827
3828
3829
3830
3831
3832
3833
3834
3835
3836
3837
3838
3839
3840
3841
3842
3843
3844
3845
3846
3847
3848
3849
3850
3851
3852
3853
3854
3855
3856
3857
3858
3859
3860
3864
3866
3867
3871
3872
3873
3874
3875
3876
3877
3878
3879
3880
3881
3882
3883
3884
3885
3886
3887
3888
3889
3890
3891
3892
3893
3894
3895
3896
3897
3898
3899
3900
3901
3902
3903
3904
3905
3906
3907
3908
3909
3910
3911
3912
3913
3914
3918
3920
3927
3928
3929
3930
3931
3932
3933
3934
3935
3936
3937
3938
3939
3940
3941
3942
3943
3944
3945
3953
3954
3955
3956
3957
3958
3961
3965
3966
3968
3983
3989
4028
4290
4291
4292
4293
4294
4295
4296
4297
4298
4299
4300
4301
4302
4303
4304
4307
4337
4339
4344
4345
4346
4347
4348
4349
4350
4351
4352
4357
4358
4515
4516
4540
4541
4543
4544
4545
4547
4548
4549
4550
4551
4553
4554
4556
4557
4558
4559
4560
4561
4562
4563
4564
4567
4568
4569
4573
4574
4575
4576
4577
4579
4580
4582
4583
4586
4587
4588
4590
4591
4592
4593
4595
4596
4707
4709
4710
4712
4719
4799
5092
5093
5094
5095
5096
5097
5098
5100
5101
5102
5103
5104
5105
5106
5107
5108
5109
5111
5112
5113
5114
5115
5116
5117
5118
5119
5120
5121
5122
5123
5124
5125
5126
5127
5128
5129
5130
5131
5134
5135
5137
5138
5139
5144
5145
5146
5147
5148
5150
5155
5156
5157
5158
5159
5160
5161
5162
5163
5164
5165
5166
5167
5168
5169
5170
5171
5172
5173
5174
5175
5176
5177
5178
5179
5180
5181
5182
5183
5184
5185
5186
5187
5188
5189
5190
5191
5192
5193
5194
5195
5196
5197
5198
5199
5200
5201
5202
5203
5204
5205
5206
5207
5210
5211
5212
5213
5214
5215
5216
5217
5218
5219
5220
5221
5222
5223
5224
5225
5226
5227
5228
5229
5236
5237
5238
5240
5241
5249
5255
5257
5258
5259
5260
5261
5264
5265
5266
5267
5268
5269
5272
5273
5274
5284
5292
5294
5300
5301
5303
5305
5306
5307
5308
5311
5312
5316
5318
5319
5320
5323
5338
5354
5355
5356
5357
5361
5362
5363
5369
5370
5371
5372
5373
5374
5375
5376
5377
5378
5379
5380
5381
5382
5391
5392
5402
5406
5411
5415
5425
5426
5427
5428
5429
5432
5433
5434
5435
5448
5449
5450
5459
5460
5465
5466
5467
5468
5510
5511
5512
5513
5523
5524
5525
5536
5537
5538
5539
5540
5541
5547
5548
5549
5550
5551
5552
5553
5554
5555
5556
5557
5558
5559
5560
5561
5562
5563
5564
5565
5566
5567
5568
5569
5570
5571
5572
5573
5574
5575
5576
5577
5578
5579
5580
5581
5582
5583
5584
5585
5586
5587
5588
5589
5590
5591
5592
5593
5594
5595
5596
5597
5598
5599
5600
5601
5602
5603
5604
5605
5606
5607
5608
5609
5610
5611
5612
5613
5614
5615
5616
5617
5618
5619
5620
5621
5622
5623
5624
5625
5626
5628
5629
5630
5631
5632
5634
5635
5637
5638
5639
5640
5641
5643
5644
5645
5646
5647
5649
5650
5652
5653
5654
5655
5656
5657
5658
5659
5660
5661
5662
5663
5664
5665
5666
5667
5668
5669
5670
5671
5672
5673
5674
5675
5676
5677
5678
5679
5680
5681
5682
5683
5684
5685
5686
5687
5688
5689
5690
5691
5692
5693
5694
5695
5696
5697
5698
5699
5700
5701
5702
5703
5704
5705
5707
5708
5709
5710
5711
5713
5714
5715
5716
5717
5718
5719
5720
5721
5722
5723
5725
5726
5727
5728
5729
5731
5732
5733
5734
5735
5736
5737
5738
5739
5740
5741
5743
5744
5745
5746
5747
5748
5749
5750
5752
5753
5754
5755
5756
5757
5758
5759
5760
5761
5762
5763
5764
5765
5766
5767
5768
5770
5772
5773
5774
5775
5776
5777
5778
5779
5780
5781
5782
5783
5785
5788
5791
5794
5796
5797
5798
5799
5800
5801
5802
5803
5804
5805
5806
5807
5808
5809
5810
5812
5813
5814
5815
5816
5817
5818
5819
5820
5822
5823
5824
5825
5826
5827
5828
5833
5834
5839
5842
5843
5844
5845
5846
5847
5848
5849
5850
5851
5852
5853
5854
5855
5856
5857
5858
5859
5860
5861
5862
5863
5864
5869
5870
5871
5872
5873
5874
5875
5876
5877
5878
5879
5880
5883
5884
5885
5886
5887
5888
5889
5890
5891
5892
5893
5894
5900
5901
5902
5903
5904
5905
5908
5909
5910
5911
5912
5913
5916
5917
5918
5919
5920
5921
5922
5923
5924
5925
5926
5927
5928
5929
5930
5931
5932
5933
5934
5935
5936
5941
5942
5948
5949
5955
5956
5957
5963
5964
5965
5966
5967
5968
5969
5971
5974
5975
5976
5977
5978
5979
5980
5981
5982
5985
5986
5987
5988
5989
5990
5991
5992
5993
5994
5995
5996
5997
5998
6001
6002
6003
6004
6005
6006
6007
6008
6009
6010
6011
6012
6013
6014
6015
6016
6017
6018
6019
6020
6021
6022
6023
6024
6025
6026
6027
6028
6029
6030
6031
6032
6033
6034
6035
6036
6039
6040
6047
6048
6049
6050
6051
6052
6176
6177
6178
6184
6185
6188
6189
6201
6202
6203
6204
6205
7261
7264
7266
7269
7271
7285
7299
7300
7301
7302
7307
7308
7312
7314
7315
7324
7325
7326
7327
7341
7342
7343
7347
7348
7349
7350
7351
7352
7353
7354
7359
7360
7375
7376
7377
7378
7379
7380
7381
7382
7383
7384
7385
7386
7387
7388
7392
7394
7397
7400
7409
7412
7413
7414
7415
7416
7418
7419
7420
7422
7425
7426
7428
7430
7433
7434
7436
7438
7439
7442
7444
7445
7447
7448
7449
7450
7452
7453
7454
7457
7458
7459
7460
7461
7462
7474
7476
7477
7478
7481
7482
7483
7484
7485
7486
7491
7492
7493
7500
7501
7502
7506
7507
7509
7510
7511
7512
7514
7518
7522
7526
7531
7535
7538
7542
7546
7550
7553
7554
7555
7557
7558
7559
7560
7561
7562
7572
7573
7574
7575
7576
7577
7578
7579
7580
7581
7582
7583
7584
7585
7586
7587
7588
7589
7590
7591
7592
7593
7594
7595
7596
7597
7598
7599
7600
7601
7602
7603
7607
7611
7612
7613
7615
7616
7617
7618
7619
7620
7643
7644
7645
7646
7647
7648
7649
7650
7651
7652
7653
7654
7655
7656
7657
7658
7673
7674
7675
7676
7677
7681
7682
7683
7684
7685
7686
7687
7688
7689
7690
7691
7692
7693
7694
7695
7696
7697
7699
7702
7705
7708
7711
7714
7717
7720
7723
7726
7728
7729
7730
7733
7734
7735
7736
7737
7738
7739
7740
7741
7742
7743
7744
7745
7746
7747
7754
7755
7756
7757
7758
7769
7770
7771
7772
7773
7774
7775
7776
7784
7785
7788
7789
7790
7791
7792
7793
7794
7919
7920
7921
7922
7928
7929
7937
7939
7951
7953
7956
7957
7960
7961
7963
7965
7967
7969
7972
7975
7977
7978
7979
7980
7981
7982
7983
7984
7985
8001
8002
8003
8007
8010
8013
8016
8020
8024
8028
8032
8036
8042
8044
8045
8046
8048
8049
8050
8052
8053
8054
8056
8057
8058
8060
8061
8062
8064
8081
8103
8104
8105
8106
8107
8108
8109
8110
8111
8112
8117
8118
8119
8120
8123
8131
8132
8133
8134
8135
8136
8137
8138
8158
8159
8160
8161
8162
8163
8176
8177
8178
8179
8180
8181
8182
8184
8187
8190
8193
8196
8199
8202
8206
8210
8211
8213
8214
8216
8217
8219
8220
8222
8223
8243
8244
8245
8246
8247
8250
8251
8256
8257
8258
8259
8269
8270
8271
8278
8279
8280
8288
8289
8290
8292
8293
8294
8295
8296
8297
8298
8299