/*--------------------------------*- C++ -*----------------------------------*\
  =========                 |
  \\      /  F ield         | OpenFOAM: The Open Source CFD Toolbox
   \\    /   O peration     | Website:  https://openfoam.org
    \\  /    A nd           | Version:  8
     \\/     M anipulation  |
\*---------------------------------------------------------------------------*/
/*   Windows 32 and 64 bit porting by blueCAPE: http://www.bluecape.com.pt   *\
|  Based on Windows porting (2.0.x v4) by Symscape: http://www.symscape.com   |
\*---------------------------------------------------------------------------*/
FoamFile
{
    version     2.0;
    format      ascii;
    class       scalarListList;
    location    "constant/vegetation";
    object      sunViewCoeff;
}
// * * * * * * * * * * * * * * * * * * * * * * * * * * * * * * * * * * * * * //


5
(

915
(
0
0
0
717.08284
717.08284
717.08284
717.08284
717.08284
717.08284
717.08284
717.08284
717.08284
717.08284
717.08284
717.08284
717.08284
717.08284
717.08284
717.08284
717.08284
717.08284
717.08284
717.08284
717.08284
717.08284
717.08284
717.08284
717.08284
0
0
0
0
0
222.06862
222.06862
222.06862
222.06862
222.06862
222.06862
222.06862
222.06862
222.06862
222.06862
222.06862
222.06862
222.06862
222.06862
222.06862
222.06862
222.06862
222.06862
222.06862
222.06862
222.06862
222.06862
222.06862
222.06862
222.06862
222.06862
222.06862
222.06862
222.06862
222.06862
222.06862
222.06862
222.06862
222.06862
222.06862
222.06862
222.06862
222.06862
222.06862
222.06862
222.06862
222.06862
222.06862
222.06862
222.06862
222.06862
222.06862
222.06862
222.06862
222.06862
222.06862
222.06862
222.06862
222.06862
222.06862
222.06862
222.06862
222.06862
222.06862
222.06862
222.06862
222.06862
222.06862
222.06862
0
717.08284
0
717.08284
0
717.08284
0
717.08284
717.08284
0
717.08284
717.08284
717.08284
717.08284
717.08284
717.08284
717.08284
717.08284
717.08284
717.08284
717.08284
717.08284
717.08284
717.08284
717.08284
717.08284
717.08284
717.08284
717.08284
717.08284
717.08284
717.08284
717.08284
717.08284
717.08284
717.08284
717.08284
717.08284
717.08284
717.08284
717.08284
717.08284
717.08284
717.08284
717.08284
717.08284
717.08284
717.08284
717.08284
717.08284
717.08284
717.08284
717.08284
717.08284
717.08284
0
0
717.08284
717.08284
717.08284
717.08284
0
0
0
0
0
717.08284
717.08284
0
0
0
0
717.08284
717.08284
717.08284
0
717.08284
717.08284
717.08284
0
717.08284
717.08284
717.08284
0
717.08284
717.08284
717.08284
717.08284
717.08284
717.08284
717.08284
717.08284
717.08284
717.08284
717.08284
717.08284
717.08284
717.08284
717.08284
717.08284
717.08284
717.08284
717.08284
717.08284
717.08284
717.08284
717.08284
717.08284
717.08284
717.08284
717.08284
0
0
0
0
0
0
0
0
0
0
0
0
717.08284
717.08284
0
0
0
0
717.08284
717.08284
0
0
0
0
717.08284
717.08284
717.08284
717.08284
717.08284
717.08284
717.08284
717.08284
717.08284
717.08284
717.08284
717.08284
717.08284
0
0
0
0
0
717.08284
717.08284
717.08284
717.08284
717.08284
717.08284
717.08284
717.08284
0
0
717.08284
717.08284
717.08284
717.08284
717.08284
717.08284
717.08284
717.08284
717.08284
717.08284
717.08284
717.08284
717.08284
717.08284
717.08284
717.08284
717.08284
717.08284
717.08284
717.08284
717.08284
717.08284
717.08284
717.08284
717.08284
717.08284
717.08284
717.08284
717.08284
717.08284
717.08284
717.08284
717.08284
717.08284
717.08284
717.08284
717.08284
717.08284
717.08284
717.08284
717.08284
717.08284
717.08284
717.08284
717.08284
717.08284
717.08284
717.08284
717.08284
717.08284
717.08284
717.08284
0
0
0
0
717.08284
717.08284
717.08284
717.08284
717.08284
717.08284
717.08284
717.08284
0
0
0
0
0
0
0
0
717.08284
717.08284
717.08284
717.08284
717.08284
717.08284
717.08284
717.08284
717.08284
717.08284
717.08284
717.08284
717.08284
717.08284
717.08284
717.08284
717.08284
717.08284
717.08284
717.08284
717.08284
717.08284
717.08284
717.08284
717.08284
717.08284
717.08284
717.08284
717.08284
717.08284
717.08284
717.08284
717.08284
717.08284
717.08284
717.08284
717.08284
717.08284
717.08284
717.08284
717.08284
717.08284
717.08284
717.08284
717.08284
717.08284
717.08284
222.06862
222.06862
222.06862
222.06862
222.06862
222.06862
222.06862
222.06862
222.06862
222.06862
222.06862
222.06862
222.06862
222.06862
222.06862
222.06862
222.06862
222.06862
222.06862
222.06862
222.06862
222.06862
222.06862
222.06862
222.06862
222.06862
222.06862
222.06862
222.06862
222.06862
222.06862
222.06862
222.06862
222.06862
222.06862
222.06862
222.06862
222.06862
222.06862
222.06862
222.06862
222.06862
222.06862
222.06862
222.06862
222.06862
222.06862
222.06862
222.06862
222.06862
222.06862
222.06862
222.06862
222.06862
222.06862
222.06862
222.06862
222.06862
222.06862
222.06862
222.06862
222.06862
222.06862
222.06862
222.06862
222.06862
222.06862
222.06862
222.06862
222.06862
222.06862
222.06862
222.06862
222.06862
222.06862
222.06862
222.06862
222.06862
222.06862
222.06862
222.06862
222.06862
222.06862
222.06862
717.08284
222.06862
222.06862
717.08284
222.06862
222.06862
222.06862
222.06862
222.06862
717.08284
222.06862
222.06862
222.06862
222.06862
222.06862
717.08284
222.06862
222.06862
717.08284
222.06862
222.06862
222.06862
222.06862
222.06862
222.06862
717.08284
222.06862
222.06862
222.06862
222.06862
222.06862
222.06862
222.06862
0
0
0
0
222.06862
222.06862
222.06862
222.06862
222.06862
222.06862
0
0
0
0
222.06862
222.06862
222.06862
222.06862
222.06862
222.06862
0
0
0
0
0
0
0
0
222.06862
222.06862
222.06862
717.08284
222.06862
222.06862
222.06862
222.06862
222.06862
0
0
0
0
222.06862
222.06862
222.06862
222.06862
222.06862
222.06862
0
0
0
0
0
0
0
0
717.08284
0
222.06862
0
222.06862
222.06862
222.06862
222.06862
0
0
0
0
0
0
0
0
0
0
0
0
0
0
0
0
0
0
717.08284
0
0
0
0
0
0
0
0
0
0
0
717.08284
717.08284
0
0
0
0
0
0
0
0
0
0
0
0
0
0
0
0
222.06862
222.06862
222.06862
717.08284
222.06862
222.06862
222.06862
222.06862
222.06862
717.08284
222.06862
222.06862
222.06862
222.06862
222.06862
222.06862
222.06862
222.06862
222.06862
222.06862
222.06862
717.08284
222.06862
222.06862
222.06862
222.06862
222.06862
222.06862
222.06862
222.06862
717.08284
222.06862
222.06862
222.06862
222.06862
222.06862
717.08284
717.08284
222.06862
222.06862
222.06862
222.06862
222.06862
222.06862
222.06862
222.06862
222.06862
222.06862
222.06862
222.06862
222.06862
222.06862
222.06862
0
222.06862
222.06862
222.06862
222.06862
222.06862
222.06862
222.06862
222.06862
222.06862
717.08284
717.08284
717.08284
222.06862
222.06862
222.06862
222.06862
222.06862
222.06862
222.06862
222.06862
222.06862
222.06862
222.06862
222.06862
222.06862
222.06862
717.08284
222.06862
222.06862
717.08284
222.06862
222.06862
222.06862
222.06862
222.06862
222.06862
222.06862
222.06862
222.06862
222.06862
222.06862
222.06862
222.06862
717.08284
222.06862
222.06862
222.06862
222.06862
717.08284
0
0
717.08284
0
0
717.08284
717.08284
717.08284
0
0
717.08284
0
0
717.08284
0
0
717.08284
0
0
717.08284
0
0
717.08284
717.08284
717.08284
0
0
717.08284
0
0
717.08284
0
0
717.08284
0
0
222.06862
222.06862
717.08284
717.08284
717.08284
717.08284
717.08284
717.08284
717.08284
222.06862
717.08284
222.06862
222.06862
222.06862
222.06862
222.06862
222.06862
222.06862
222.06862
222.06862
222.06862
222.06862
222.06862
222.06862
222.06862
222.06862
222.06862
222.06862
222.06862
222.06862
222.06862
222.06862
0
0
0
222.06862
222.06862
222.06862
222.06862
222.06862
222.06862
222.06862
222.06862
222.06862
222.06862
222.06862
222.06862
222.06862
222.06862
222.06862
222.06862
222.06862
222.06862
222.06862
222.06862
222.06862
717.08284
717.08284
717.08284
717.08284
222.06862
222.06862
222.06862
222.06862
222.06862
222.06862
222.06862
222.06862
222.06862
222.06862
222.06862
222.06862
222.06862
222.06862
222.06862
222.06862
222.06862
222.06862
0
0
0
0
0
0
0
0
0
0
0
0
0
0
0
0
0
0
0
0
0
0
0
0
0
0
0
0
0
0
0
0
0
0
0
0
0
0
0
0
0
0
0
0
0
0
0
0
222.06862
222.06862
222.06862
222.06862
222.06862
222.06862
222.06862
222.06862
222.06862
222.06862
222.06862
222.06862
717.08284
717.08284
222.06862
222.06862
222.06862
222.06862
222.06862
222.06862
717.08284
717.08284
717.08284
717.08284
717.08284
717.08284
717.08284
717.08284
717.08284
717.08284
717.08284
717.08284
717.08284
717.08284
717.08284
717.08284
717.08284
717.08284
717.08284
717.08284
717.08284
717.08284
405.917
)


915
(
0
0
0
585.76158
585.76158
585.76158
585.76158
585.76158
585.76158
585.76158
585.76158
585.76158
585.76158
585.76158
585.76158
585.76158
585.76158
585.76158
585.76158
585.76158
585.76158
585.76158
585.76158
585.76158
585.76158
585.76158
585.76158
585.76158
0
0
0
0
0
169.66998
169.66998
169.66998
169.66998
169.66998
169.66998
169.66998
169.66998
169.66998
169.66998
169.66998
169.66998
169.66998
169.66998
169.66998
169.66998
169.66998
169.66998
169.66998
169.66998
169.66998
169.66998
169.66998
169.66998
169.66998
169.66998
169.66998
169.66998
169.66998
169.66998
169.66998
169.66998
169.66998
169.66998
169.66998
169.66998
169.66998
169.66998
169.66998
169.66998
169.66998
169.66998
169.66998
169.66998
169.66998
169.66998
169.66998
169.66998
169.66998
169.66998
169.66998
169.66998
169.66998
169.66998
169.66998
169.66998
169.66998
169.66998
169.66998
169.66998
169.66998
169.66998
169.66998
169.66998
0
585.76158
0
585.76158
0
585.76158
0
585.76158
585.76158
0
585.76158
585.76158
585.76158
585.76158
585.76158
585.76158
585.76158
585.76158
585.76158
585.76158
585.76158
585.76158
585.76158
585.76158
585.76158
585.76158
585.76158
585.76158
585.76158
585.76158
585.76158
585.76158
585.76158
585.76158
585.76158
585.76158
585.76158
585.76158
585.76158
585.76158
585.76158
585.76158
585.76158
585.76158
585.76158
585.76158
585.76158
585.76158
585.76158
585.76158
585.76158
585.76158
585.76158
585.76158
585.76158
0
0
585.76158
585.76158
585.76158
585.76158
0
0
0
0
0
585.76158
585.76158
0
0
0
0
585.76158
585.76158
585.76158
0
585.76158
585.76158
585.76158
0
585.76158
585.76158
585.76158
0
585.76158
585.76158
585.76158
585.76158
585.76158
585.76158
585.76158
585.76158
585.76158
585.76158
585.76158
585.76158
585.76158
585.76158
585.76158
585.76158
585.76158
585.76158
585.76158
585.76158
585.76158
585.76158
585.76158
585.76158
585.76158
585.76158
585.76158
0
0
0
0
0
0
0
0
0
0
0
0
585.76158
585.76158
0
0
0
0
585.76158
585.76158
0
0
0
0
585.76158
585.76158
585.76158
585.76158
585.76158
585.76158
585.76158
585.76158
585.76158
585.76158
585.76158
585.76158
585.76158
0
0
0
0
0
585.76158
585.76158
585.76158
585.76158
585.76158
585.76158
585.76158
585.76158
0
0
585.76158
585.76158
585.76158
585.76158
585.76158
585.76158
585.76158
585.76158
585.76158
585.76158
585.76158
585.76158
585.76158
585.76158
585.76158
585.76158
585.76158
585.76158
585.76158
585.76158
585.76158
585.76158
585.76158
585.76158
585.76158
585.76158
585.76158
585.76158
585.76158
585.76158
585.76158
585.76158
585.76158
585.76158
585.76158
585.76158
585.76158
585.76158
585.76158
585.76158
585.76158
585.76158
585.76158
585.76158
585.76158
585.76158
585.76158
585.76158
585.76158
585.76158
585.76158
585.76158
0
0
0
0
585.76158
585.76158
585.76158
585.76158
585.76158
585.76158
585.76158
585.76158
0
0
0
0
0
0
0
0
585.76158
585.76158
585.76158
585.76158
585.76158
585.76158
585.76158
585.76158
585.76158
585.76158
585.76158
585.76158
585.76158
585.76158
585.76158
585.76158
585.76158
585.76158
585.76158
585.76158
585.76158
585.76158
585.76158
585.76158
585.76158
585.76158
585.76158
585.76158
585.76158
585.76158
585.76158
585.76158
585.76158
585.76158
585.76158
585.76158
585.76158
585.76158
585.76158
585.76158
585.76158
585.76158
585.76158
585.76158
585.76158
585.76158
585.76158
169.66998
169.66998
169.66998
169.66998
169.66998
169.66998
169.66998
169.66998
169.66998
169.66998
169.66998
169.66998
169.66998
169.66998
169.66998
169.66998
169.66998
169.66998
169.66998
169.66998
169.66998
169.66998
169.66998
169.66998
169.66998
169.66998
169.66998
169.66998
169.66998
169.66998
169.66998
169.66998
169.66998
169.66998
169.66998
169.66998
169.66998
169.66998
169.66998
169.66998
169.66998
169.66998
169.66998
169.66998
169.66998
169.66998
169.66998
169.66998
169.66998
169.66998
169.66998
169.66998
169.66998
169.66998
169.66998
169.66998
169.66998
169.66998
169.66998
169.66998
169.66998
169.66998
169.66998
169.66998
169.66998
169.66998
169.66998
169.66998
169.66998
169.66998
169.66998
169.66998
169.66998
169.66998
169.66998
169.66998
169.66998
169.66998
169.66998
169.66998
169.66998
169.66998
169.66998
169.66998
585.76158
169.66998
169.66998
585.76158
169.66998
169.66998
169.66998
169.66998
169.66998
585.76158
169.66998
169.66998
169.66998
169.66998
169.66998
585.76158
169.66998
169.66998
585.76158
169.66998
169.66998
169.66998
169.66998
169.66998
169.66998
585.76158
169.66998
169.66998
169.66998
169.66998
169.66998
169.66998
169.66998
0
0
0
0
169.66998
169.66998
169.66998
169.66998
169.66998
169.66998
0
0
0
0
169.66998
169.66998
169.66998
169.66998
169.66998
169.66998
0
0
0
0
0
0
0
0
169.66998
169.66998
169.66998
585.76158
169.66998
169.66998
169.66998
169.66998
169.66998
0
0
0
0
169.66998
169.66998
169.66998
169.66998
169.66998
169.66998
0
0
0
0
0
0
0
0
585.76158
0
169.66998
0
169.66998
169.66998
169.66998
169.66998
0
0
0
0
0
0
0
0
0
0
0
0
0
0
0
0
0
0
585.76158
0
0
0
0
0
0
0
0
0
0
0
585.76158
585.76158
0
0
0
0
0
0
0
0
0
0
0
0
0
0
0
0
169.66998
169.66998
169.66998
585.76158
169.66998
169.66998
169.66998
169.66998
169.66998
585.76158
169.66998
169.66998
169.66998
169.66998
169.66998
169.66998
169.66998
169.66998
169.66998
169.66998
169.66998
585.76158
169.66998
169.66998
169.66998
169.66998
169.66998
169.66998
169.66998
169.66998
585.76158
169.66998
169.66998
169.66998
169.66998
169.66998
585.76158
585.76158
169.66998
169.66998
169.66998
169.66998
169.66998
169.66998
169.66998
169.66998
169.66998
169.66998
169.66998
169.66998
169.66998
169.66998
169.66998
0
169.66998
169.66998
169.66998
169.66998
169.66998
169.66998
169.66998
169.66998
169.66998
585.76158
585.76158
585.76158
169.66998
169.66998
169.66998
169.66998
169.66998
169.66998
169.66998
169.66998
169.66998
169.66998
169.66998
169.66998
169.66998
169.66998
585.76158
169.66998
169.66998
585.76158
169.66998
169.66998
169.66998
169.66998
169.66998
169.66998
169.66998
169.66998
169.66998
169.66998
169.66998
169.66998
169.66998
585.76158
169.66998
169.66998
169.66998
169.66998
585.76158
0
0
585.76158
0
0
585.76158
585.76158
585.76158
0
0
585.76158
0
0
585.76158
0
0
585.76158
0
0
585.76158
0
0
585.76158
585.76158
585.76158
0
0
585.76158
0
0
585.76158
0
0
585.76158
0
0
169.66998
169.66998
585.76158
585.76158
585.76158
585.76158
585.76158
585.76158
585.76158
169.66998
585.76158
169.66998
169.66998
169.66998
169.66998
169.66998
169.66998
169.66998
169.66998
169.66998
169.66998
169.66998
169.66998
169.66998
169.66998
169.66998
169.66998
169.66998
169.66998
169.66998
169.66998
169.66998
0
0
0
169.66998
169.66998
169.66998
169.66998
169.66998
169.66998
169.66998
169.66998
169.66998
169.66998
169.66998
169.66998
169.66998
169.66998
169.66998
169.66998
169.66998
169.66998
169.66998
169.66998
169.66998
585.76158
585.76158
585.76158
585.76158
169.66998
169.66998
169.66998
169.66998
169.66998
169.66998
169.66998
169.66998
169.66998
169.66998
169.66998
169.66998
169.66998
169.66998
169.66998
169.66998
169.66998
169.66998
0
0
0
0
0
0
0
0
0
0
0
0
0
0
0
0
0
0
0
0
0
0
0
0
0
0
0
0
0
0
0
0
0
0
0
0
0
0
0
0
0
0
0
0
0
0
0
0
169.66998
169.66998
169.66998
169.66998
169.66998
169.66998
169.66998
169.66998
169.66998
169.66998
169.66998
169.66998
585.76158
585.76158
169.66998
169.66998
169.66998
169.66998
169.66998
169.66998
585.76158
585.76158
585.76158
585.76158
585.76158
585.76158
585.76158
585.76158
585.76158
585.76158
585.76158
585.76158
585.76158
585.76158
585.76158
585.76158
585.76158
585.76158
585.76158
585.76158
585.76158
585.76158
335.87609
)


915
(
0
0
0
536.2201
536.2201
536.2201
536.2201
536.2201
536.2201
536.2201
536.2201
536.2201
536.2201
536.2201
536.2201
536.2201
536.2201
536.2201
536.2201
536.2201
536.2201
536.2201
536.2201
536.2201
536.2201
536.2201
536.2201
536.2201
0
0
0
0
0
129.78276
129.78276
129.78276
129.78276
129.78276
129.78276
129.78276
129.78276
129.78276
129.78276
129.78276
129.78276
129.78276
129.78276
129.78276
129.78276
129.78276
129.78276
129.78276
129.78276
129.78276
129.78276
129.78276
129.78276
129.78276
129.78276
129.78276
129.78276
129.78276
129.78276
129.78276
129.78276
129.78276
129.78276
129.78276
129.78276
129.78276
129.78276
129.78276
129.78276
129.78276
129.78276
129.78276
129.78276
129.78276
129.78276
129.78276
129.78276
129.78276
129.78276
129.78276
129.78276
129.78276
129.78276
129.78276
129.78276
129.78276
129.78276
129.78276
129.78276
129.78276
129.78276
129.78276
129.78276
0
536.2201
0
536.2201
0
536.2201
0
536.2201
536.2201
0
536.2201
536.2201
536.2201
536.2201
536.2201
536.2201
536.2201
536.2201
536.2201
536.2201
536.2201
536.2201
536.2201
536.2201
536.2201
536.2201
536.2201
536.2201
536.2201
536.2201
536.2201
536.2201
536.2201
536.2201
536.2201
536.2201
536.2201
536.2201
536.2201
536.2201
536.2201
536.2201
536.2201
536.2201
536.2201
536.2201
536.2201
536.2201
536.2201
536.2201
536.2201
536.2201
536.2201
536.2201
536.2201
0
0
536.2201
536.2201
536.2201
536.2201
0
0
0
0
0
536.2201
536.2201
0
0
0
0
536.2201
536.2201
536.2201
0
536.2201
536.2201
536.2201
0
536.2201
536.2201
536.2201
0
536.2201
536.2201
536.2201
536.2201
536.2201
536.2201
536.2201
536.2201
536.2201
536.2201
536.2201
536.2201
536.2201
536.2201
536.2201
536.2201
536.2201
536.2201
536.2201
536.2201
536.2201
536.2201
536.2201
536.2201
536.2201
536.2201
536.2201
0
0
0
0
0
0
0
0
0
0
0
0
536.2201
536.2201
0
0
0
0
536.2201
536.2201
0
0
0
0
536.2201
536.2201
536.2201
536.2201
536.2201
536.2201
536.2201
536.2201
536.2201
536.2201
536.2201
536.2201
536.2201
0
0
0
0
0
536.2201
536.2201
536.2201
536.2201
536.2201
536.2201
536.2201
536.2201
0
0
536.2201
536.2201
536.2201
536.2201
536.2201
536.2201
536.2201
536.2201
536.2201
536.2201
536.2201
536.2201
536.2201
536.2201
536.2201
536.2201
536.2201
536.2201
536.2201
536.2201
536.2201
536.2201
536.2201
536.2201
536.2201
536.2201
536.2201
536.2201
536.2201
536.2201
536.2201
536.2201
536.2201
536.2201
536.2201
536.2201
536.2201
536.2201
536.2201
536.2201
536.2201
536.2201
536.2201
536.2201
536.2201
536.2201
536.2201
536.2201
536.2201
536.2201
536.2201
536.2201
0
0
0
0
536.2201
536.2201
536.2201
536.2201
536.2201
536.2201
536.2201
536.2201
0
0
0
0
0
0
0
0
536.2201
536.2201
536.2201
536.2201
536.2201
536.2201
536.2201
536.2201
536.2201
536.2201
536.2201
536.2201
536.2201
536.2201
536.2201
536.2201
536.2201
536.2201
536.2201
536.2201
536.2201
536.2201
536.2201
536.2201
536.2201
536.2201
536.2201
536.2201
536.2201
536.2201
536.2201
536.2201
536.2201
536.2201
536.2201
536.2201
536.2201
536.2201
536.2201
536.2201
536.2201
536.2201
536.2201
536.2201
536.2201
536.2201
536.2201
129.78276
129.78276
129.78276
129.78276
129.78276
129.78276
129.78276
129.78276
129.78276
129.78276
129.78276
129.78276
129.78276
129.78276
129.78276
129.78276
129.78276
129.78276
129.78276
129.78276
129.78276
129.78276
129.78276
129.78276
129.78276
129.78276
129.78276
129.78276
129.78276
129.78276
129.78276
129.78276
129.78276
129.78276
129.78276
129.78276
129.78276
129.78276
129.78276
129.78276
129.78276
129.78276
129.78276
129.78276
129.78276
129.78276
129.78276
129.78276
129.78276
129.78276
129.78276
129.78276
129.78276
129.78276
129.78276
129.78276
129.78276
129.78276
129.78276
129.78276
129.78276
129.78276
129.78276
129.78276
129.78276
129.78276
129.78276
129.78276
129.78276
129.78276
129.78276
129.78276
129.78276
129.78276
129.78276
129.78276
129.78276
129.78276
129.78276
129.78276
129.78276
129.78276
129.78276
129.78276
536.2201
129.78276
129.78276
536.2201
129.78276
129.78276
129.78276
129.78276
129.78276
536.2201
129.78276
129.78276
129.78276
129.78276
129.78276
536.2201
129.78276
129.78276
536.2201
129.78276
129.78276
129.78276
129.78276
129.78276
129.78276
536.2201
129.78276
129.78276
129.78276
129.78276
129.78276
129.78276
129.78276
0
0
0
0
129.78276
129.78276
129.78276
129.78276
129.78276
129.78276
0
0
0
0
129.78276
129.78276
129.78276
129.78276
129.78276
129.78276
0
0
0
0
0
0
0
0
129.78276
129.78276
129.78276
536.2201
129.78276
129.78276
129.78276
129.78276
129.78276
0
0
0
0
129.78276
129.78276
129.78276
129.78276
129.78276
129.78276
0
0
0
0
0
0
0
0
536.2201
0
129.78276
0
129.78276
129.78276
129.78276
129.78276
0
0
0
0
0
0
0
0
0
0
0
0
0
0
0
0
0
0
536.2201
0
0
0
0
0
0
0
0
0
0
0
536.2201
536.2201
0
0
0
0
0
0
0
0
0
0
0
0
0
0
0
0
129.78276
129.78276
129.78276
536.2201
129.78276
129.78276
129.78276
129.78276
129.78276
536.2201
129.78276
129.78276
129.78276
129.78276
129.78276
129.78276
129.78276
129.78276
129.78276
129.78276
129.78276
536.2201
129.78276
129.78276
129.78276
129.78276
129.78276
129.78276
129.78276
129.78276
536.2201
129.78276
129.78276
129.78276
129.78276
129.78276
536.2201
536.2201
129.78276
129.78276
129.78276
129.78276
129.78276
129.78276
129.78276
129.78276
129.78276
129.78276
129.78276
129.78276
129.78276
129.78276
129.78276
0
129.78276
129.78276
129.78276
129.78276
129.78276
129.78276
129.78276
129.78276
129.78276
536.2201
536.2201
536.2201
129.78276
129.78276
129.78276
129.78276
129.78276
129.78276
129.78276
129.78276
129.78276
129.78276
129.78276
129.78276
129.78276
129.78276
536.2201
129.78276
129.78276
536.2201
129.78276
129.78276
129.78276
129.78276
129.78276
129.78276
129.78276
129.78276
129.78276
129.78276
129.78276
129.78276
129.78276
536.2201
129.78276
129.78276
129.78276
129.78276
536.2201
0
0
536.2201
0
0
536.2201
536.2201
536.2201
0
0
536.2201
0
0
536.2201
0
0
536.2201
0
0
536.2201
0
0
536.2201
536.2201
536.2201
0
0
536.2201
0
0
536.2201
0
0
536.2201
0
0
129.78276
129.78276
536.2201
536.2201
536.2201
536.2201
536.2201
536.2201
536.2201
129.78276
536.2201
129.78276
129.78276
129.78276
129.78276
129.78276
129.78276
129.78276
129.78276
129.78276
129.78276
129.78276
129.78276
129.78276
129.78276
129.78276
129.78276
129.78276
129.78276
129.78276
129.78276
129.78276
0
0
0
129.78276
129.78276
129.78276
129.78276
129.78276
129.78276
129.78276
129.78276
129.78276
129.78276
129.78276
129.78276
129.78276
129.78276
129.78276
129.78276
129.78276
129.78276
129.78276
129.78276
129.78276
536.2201
536.2201
536.2201
536.2201
129.78276
129.78276
129.78276
129.78276
129.78276
129.78276
129.78276
129.78276
129.78276
129.78276
129.78276
129.78276
129.78276
129.78276
129.78276
129.78276
129.78276
129.78276
0
0
0
0
0
0
0
0
0
0
0
0
0
0
0
0
0
0
0
0
0
0
0
0
0
0
0
0
0
0
0
0
0
0
0
0
0
0
0
0
0
0
0
0
0
0
0
0
129.78276
129.78276
129.78276
129.78276
129.78276
129.78276
129.78276
129.78276
129.78276
129.78276
129.78276
129.78276
536.2201
536.2201
129.78276
129.78276
129.78276
129.78276
129.78276
129.78276
536.2201
536.2201
536.2201
536.2201
536.2201
536.2201
536.2201
536.2201
536.2201
536.2201
536.2201
536.2201
536.2201
536.2201
536.2201
536.2201
536.2201
536.2201
536.2201
536.2201
536.2201
536.2201
193.91483
)


915
(
0
0
0
411.8157
411.8157
411.8157
411.8157
411.8157
411.8157
411.8157
411.8157
411.8157
411.8157
411.8157
411.8157
411.8157
411.8157
411.8157
411.8157
411.8157
411.8157
411.8157
411.8157
411.8157
411.8157
411.8157
411.8157
411.8157
0
0
0
0
0
61.054291
61.054291
61.054291
61.054291
61.054291
61.054291
61.054291
61.054291
61.054291
61.054291
61.054291
61.054291
61.054291
61.054291
61.054291
61.054291
61.054291
61.054291
61.054291
61.054291
61.054291
61.054291
61.054291
61.054291
61.054291
61.054291
61.054291
61.054291
61.054291
61.054291
61.054291
61.054291
61.054291
61.054291
61.054291
61.054291
61.054291
61.054291
61.054291
61.054291
61.054291
61.054291
61.054291
61.054291
61.054291
61.054291
61.054291
61.054291
61.054291
61.054291
61.054291
61.054291
61.054291
61.054291
61.054291
61.054291
61.054291
61.054291
61.054291
61.054291
61.054291
61.054291
61.054291
61.054291
0
411.8157
0
411.8157
0
411.8157
0
411.8157
411.8157
0
411.8157
411.8157
411.8157
411.8157
411.8157
411.8157
411.8157
411.8157
411.8157
411.8157
411.8157
411.8157
411.8157
411.8157
411.8157
411.8157
411.8157
411.8157
411.8157
411.8157
411.8157
411.8157
411.8157
411.8157
411.8157
411.8157
411.8157
411.8157
411.8157
411.8157
411.8157
411.8157
411.8157
411.8157
411.8157
411.8157
411.8157
411.8157
411.8157
411.8157
411.8157
411.8157
411.8157
411.8157
411.8157
0
0
411.8157
411.8157
411.8157
411.8157
0
0
0
0
0
411.8157
411.8157
0
0
0
0
411.8157
411.8157
411.8157
0
411.8157
411.8157
411.8157
0
411.8157
411.8157
411.8157
0
411.8157
411.8157
411.8157
411.8157
411.8157
411.8157
411.8157
411.8157
411.8157
411.8157
411.8157
411.8157
411.8157
411.8157
411.8157
411.8157
411.8157
411.8157
411.8157
411.8157
411.8157
411.8157
411.8157
411.8157
411.8157
411.8157
411.8157
0
0
0
0
0
0
0
0
0
0
0
0
411.8157
411.8157
0
0
0
0
411.8157
411.8157
0
0
0
0
411.8157
411.8157
411.8157
411.8157
411.8157
411.8157
411.8157
411.8157
411.8157
411.8157
411.8157
411.8157
411.8157
0
0
0
0
0
411.8157
411.8157
411.8157
411.8157
411.8157
411.8157
411.8157
411.8157
0
0
411.8157
411.8157
411.8157
411.8157
411.8157
411.8157
411.8157
411.8157
411.8157
411.8157
411.8157
411.8157
411.8157
411.8157
411.8157
411.8157
411.8157
411.8157
411.8157
411.8157
411.8157
411.8157
411.8157
411.8157
411.8157
411.8157
411.8157
411.8157
411.8157
411.8157
411.8157
411.8157
411.8157
411.8157
411.8157
411.8157
411.8157
411.8157
411.8157
411.8157
411.8157
411.8157
411.8157
411.8157
411.8157
411.8157
411.8157
411.8157
411.8157
411.8157
411.8157
411.8157
0
0
0
0
411.8157
411.8157
411.8157
411.8157
411.8157
411.8157
411.8157
411.8157
0
0
0
0
0
0
0
0
411.8157
411.8157
411.8157
411.8157
411.8157
411.8157
411.8157
411.8157
411.8157
411.8157
411.8157
411.8157
411.8157
411.8157
411.8157
411.8157
411.8157
411.8157
411.8157
411.8157
411.8157
411.8157
411.8157
411.8157
411.8157
411.8157
411.8157
411.8157
411.8157
411.8157
411.8157
411.8157
411.8157
411.8157
411.8157
411.8157
411.8157
411.8157
411.8157
411.8157
411.8157
411.8157
411.8157
411.8157
411.8157
411.8157
411.8157
61.054291
61.054291
61.054291
61.054291
61.054291
61.054291
61.054291
61.054291
61.054291
61.054291
61.054291
61.054291
61.054291
61.054291
61.054291
61.054291
61.054291
61.054291
61.054291
61.054291
61.054291
61.054291
61.054291
61.054291
61.054291
61.054291
61.054291
61.054291
61.054291
61.054291
61.054291
61.054291
61.054291
61.054291
61.054291
61.054291
61.054291
61.054291
61.054291
61.054291
61.054291
61.054291
61.054291
61.054291
61.054291
61.054291
61.054291
61.054291
61.054291
61.054291
61.054291
61.054291
61.054291
61.054291
61.054291
61.054291
61.054291
61.054291
61.054291
61.054291
61.054291
61.054291
61.054291
61.054291
61.054291
61.054291
61.054291
61.054291
61.054291
61.054291
61.054291
61.054291
61.054291
61.054291
61.054291
61.054291
61.054291
61.054291
61.054291
61.054291
61.054291
61.054291
61.054291
61.054291
411.8157
61.054291
61.054291
411.8157
61.054291
61.054291
61.054291
61.054291
61.054291
411.8157
61.054291
61.054291
61.054291
61.054291
61.054291
411.8157
61.054291
61.054291
411.8157
61.054291
61.054291
61.054291
61.054291
61.054291
61.054291
411.8157
61.054291
61.054291
61.054291
61.054291
61.054291
61.054291
61.054291
0
0
0
0
61.054291
61.054291
61.054291
61.054291
61.054291
61.054291
0
0
0
0
61.054291
61.054291
61.054291
61.054291
61.054291
61.054291
0
0
0
0
0
0
0
0
61.054291
61.054291
61.054291
411.8157
61.054291
61.054291
61.054291
61.054291
61.054291
0
0
0
0
61.054291
61.054291
61.054291
61.054291
61.054291
61.054291
0
0
0
0
0
0
0
0
411.8157
0
61.054291
0
61.054291
61.054291
61.054291
61.054291
0
0
0
0
0
0
0
0
0
0
0
0
0
0
0
0
0
0
411.8157
0
0
0
0
0
0
0
0
0
0
0
411.8157
411.8157
0
0
0
0
0
0
0
0
0
0
0
0
0
0
0
0
61.054291
61.054291
61.054291
411.8157
61.054291
61.054291
61.054291
61.054291
61.054291
411.8157
61.054291
61.054291
61.054291
61.054291
61.054291
61.054291
61.054291
61.054291
61.054291
61.054291
61.054291
411.8157
61.054291
61.054291
61.054291
61.054291
61.054291
61.054291
61.054291
61.054291
411.8157
61.054291
61.054291
61.054291
61.054291
61.054291
411.8157
411.8157
61.054291
61.054291
61.054291
61.054291
61.054291
61.054291
61.054291
61.054291
61.054291
61.054291
61.054291
61.054291
61.054291
61.054291
61.054291
0
61.054291
61.054291
61.054291
61.054291
61.054291
61.054291
61.054291
61.054291
61.054291
411.8157
411.8157
411.8157
61.054291
61.054291
61.054291
61.054291
61.054291
61.054291
61.054291
61.054291
61.054291
61.054291
61.054291
61.054291
61.054291
61.054291
411.8157
61.054291
61.054291
411.8157
61.054291
61.054291
61.054291
61.054291
61.054291
61.054291
61.054291
61.054291
61.054291
61.054291
61.054291
61.054291
61.054291
411.8157
61.054291
61.054291
61.054291
61.054291
411.8157
0
0
411.8157
0
0
411.8157
411.8157
411.8157
0
0
411.8157
0
0
411.8157
0
0
411.8157
0
0
411.8157
0
0
411.8157
411.8157
411.8157
0
0
411.8157
0
0
411.8157
0
0
411.8157
0
0
61.054291
61.054291
411.8157
411.8157
411.8157
411.8157
411.8157
411.8157
411.8157
61.054291
411.8157
61.054291
61.054291
61.054291
61.054291
61.054291
61.054291
61.054291
61.054291
61.054291
61.054291
61.054291
61.054291
61.054291
61.054291
61.054291
61.054291
61.054291
61.054291
61.054291
61.054291
61.054291
0
0
0
61.054291
61.054291
61.054291
61.054291
61.054291
61.054291
61.054291
61.054291
61.054291
61.054291
61.054291
61.054291
61.054291
61.054291
61.054291
61.054291
61.054291
61.054291
61.054291
61.054291
61.054291
411.8157
411.8157
411.8157
411.8157
61.054291
61.054291
61.054291
61.054291
61.054291
61.054291
61.054291
61.054291
61.054291
61.054291
61.054291
61.054291
61.054291
61.054291
61.054291
61.054291
61.054291
61.054291
0
0
0
0
0
0
0
0
0
0
0
0
0
0
0
0
0
0
0
0
0
0
0
0
0
0
0
0
0
0
0
0
0
0
0
0
0
0
0
0
0
0
0
0
0
0
0
0
61.054291
61.054291
61.054291
61.054291
61.054291
61.054291
61.054291
61.054291
61.054291
61.054291
61.054291
61.054291
411.8157
411.8157
61.054291
61.054291
61.054291
61.054291
61.054291
61.054291
411.8157
411.8157
411.8157
411.8157
411.8157
411.8157
411.8157
411.8157
411.8157
411.8157
411.8157
411.8157
411.8157
411.8157
411.8157
411.8157
411.8157
411.8157
411.8157
411.8157
411.8157
411.8157
124.89207
)


915
(
0
0
0