/*--------------------------------*- C++ -*----------------------------------*\
  =========                 |
  \\      /  F ield         | OpenFOAM: The Open Source CFD Toolbox
   \\    /   O peration     | Website:  https://openfoam.org
    \\  /    A nd           | Version:  8
     \\/     M anipulation  |
\*---------------------------------------------------------------------------*/
/*   Windows 32 and 64 bit porting by blueCAPE: http://www.bluecape.com.pt   *\
|  Based on Windows porting (2.0.x v4) by Symscape: http://www.symscape.com   |
\*---------------------------------------------------------------------------*/
FoamFile
{
    version     2.0;
    format      ascii;
    class       scalarListList;
    location    "constant/vegetation";
    object      F;
}
// * * * * * * * * * * * * * * * * * * * * * * * * * * * * * * * * * * * * * //


1070
(

1490
(
1.0415656e-07
2.9789117e-07
8.9618912e-07
1.2753221e-06
1.917814e-07
1.4444677e-07
6.7277613e-08
0.046978633
0.080088472
0.032044381
0.0029052417
0.0049518872
0.00396352
0.0030109911
0.0084151511
0.0012797601
0.00062880597
0.0015673926
0.0056255476
0.0017889766
0.0020841839
0.0095420883
0.0050640204
0.0028574512
0.0017422091
0.021640586
1.1097717e-06
7.5933339e-07
3.3967281e-07
7.2130613e-07
1.1757243e-06
9.388407e-07
8.8942112e-07
5.8455967e-07
6.1869838e-07
1.3273029e-06
1.1641588e-06
1.3252528e-07
1.3163308e-08
4.7599312e-07
5.2528894e-09
1.0486111e-06
3.6892169e-09
7.9990871e-07
3.4838948e-09
6.8549694e-07
5.1437528e-09
1.2451852e-06
2.4231684e-07
9.9179743e-07
4.5831237e-09
2.0441428e-07
1.6536278e-07
8.4318786e-07
4.3433004e-09
1.9368056e-07
5.4327659e-07
1.8747244e-09
1.2970179e-07
1.5704988e-07
6.516035e-07
2.6366645e-09
1.3530984e-07
2.5891249e-07
1.3087936e-06
9.4363837e-09
3.8349576e-07
7.4088805e-07
7.9042315e-08
4.9179508e-07
3.3617026e-07
9.0373848e-06
7.0181099e-06
1.2855619e-07
1.2747786e-09
5.0777497e-09
3.8983617e-09
3.273137e-09
4.3055591e-09
2.2840301e-07
4.8330476e-09
2.1593221e-07
1.7420474e-07
4.1155023e-09
1.8362472e-07
6.575405e-10
1.265654e-07
1.492383e-07
3.0254139e-09
1.4195793e-07
2.8145726e-07
3.2725337e-09
3.1827005e-07
4.5360184e-07
1.9346547e-06
2.8611639e-06
7.6032206e-07
3.7534128e-06
9.4824227e-07
5.5672439e-07
4.9403028e-07
4.4330868e-06
6.0774755e-06
4.47259e-06
5.9999556e-07
9.9672106e-07
1.2121287e-06
7.7861054e-06
5.1777008e-06
1.1529594e-06
6.7726515e-07
7.910966e-07
7.3498555e-07
2.1779271e-07
2.9091983e-07
4.8584763e-07
4.0946021e-07
3.3158034e-07
3.8796252e-07
2.323059e-07
2.6314685e-07
3.1605066e-07
2.7609293e-07
1.1340451e-06
1.1670011e-06
2.2384063e-06
1.9675608e-06
1.4407398e-06
1.8751703e-06
2.3400259e-06
2.6956192e-06
3.2925562e-06
2.8290537e-06
1.2306699e-06
5.2113389e-07
7.4100914e-07
8.6085681e-07
4.7622049e-06
3.4945029e-06
4.4985809e-06
4.1275224e-06
8.977997e-07
6.1773985e-07
4.292449e-07
5.1757804e-06
4.6769263e-07
5.4654443e-07
5.7573271e-06
6.8477206e-07
5.7677716e-07
7.6064054e-07
4.5412966e-07
4.3162356e-07
7.6738644e-07
3.3363102e-07
4.057681e-07
1.0435271e-06
1.5453996e-06
1.3877377e-06
1.797693e-06
2.0364066e-06
1.9059629e-06
2.1008628e-06
7.4784898e-07
1.1225239e-06
9.6243157e-07
1.4675988e-06
1.227272e-06
8.6563986e-07
8.9434816e-07
1.1412191e-06
8.4539556e-07
6.7717485e-07
3.6169226e-07
1.0892053e-06
8.4517233e-07
6.5073221e-06
1.1126138e-06
1.430267e-06
1.1962093e-06
2.4485552e-07
1.1256818e-06
1.4336034e-06
1.6620396e-06
1.1333041e-06
1.4647345e-06
1.778044e-06
1.8582303e-06
2.1259159e-06
2.2250937e-06
2.557294e-06
2.6809104e-06
3.1003514e-06
3.2629049e-06
3.9239714e-06
4.1079615e-06
5.1842098e-07
6.8489368e-07
1.2699561e-06
1.3834106e-06
1.0917777e-06
1.3159651e-06
7.5175307e-07
7.7382774e-07
4.5749982e-07
4.3250704e-07
3.4900171e-07
3.6785058e-07
2.5237572e-07
3.0226423e-07
2.8924018e-07
2.2274476e-06
2.1451994e-06
2.0564951e-06
1.9439856e-06
1.8553493e-06
1.7794383e-06
2.3322513e-06
2.4510603e-06
2.5698197e-06
2.6842557e-06
3.2663837e-06
3.1230121e-06
2.8155336e-06
2.9708257e-06
1.5762628e-06
1.4630938e-06
5.6931456e-07
6.3968054e-07
1.1077026e-06
2.4150163e-05
4.5983369e-06
5.3472118e-06
3.4506789e-06
3.7524148e-06
4.3192862e-06
4.0940722e-06
4.9637739e-06
7.3287213e-07
6.6162472e-07
4.3010366e-07
3.6737903e-07
3.8631608e-07
5.418891e-07
1.4784803e-06
1.6255883e-06
1.3278329e-06
1.5928697e-06
1.7045342e-06
1.7094907e-06
1.0282689e-06
1.0991903e-06
1.4066812e-06
1.3900174e-06
1.1759635e-06
1.3102245e-06
8.2837567e-07
9.6030476e-07
8.2408029e-07
1.0216132e-06
1.0522047e-06
1.0932412e-06
4.9163574e-07
5.2534698e-07
5.1831044e-07
6.2330424e-07
6.4419397e-07
7.6851551e-07
6.0926674e-07
6.5645214e-07
6.9231423e-07
6.7980462e-07
4.5411633e-07
5.1691736e-07
4.5077926e-07
5.7390543e-07
2.0156749e-06
1.6878887e-06
1.6654717e-06
1.9863774e-06
1.8054103e-06
8.5217601e-07
8.4493435e-07
1.466047e-06
9.8636196e-07
7.5523522e-07
9.3646121e-07
1.0261616e-06
1.0103727e-06
1.3537963e-06
1.276883e-06
1.0834046e-06
1.6547505e-06
1.6205724e-06
1.7026649e-06
1.9428017e-06
2.0319554e-06
2.3297593e-06
2.4403078e-06
2.8120487e-06
2.9512371e-06
3.4470666e-06
3.6678061e-06
6.5603401e-06
2.1906316e-05
3.163751e-05
5.8970537e-07
1.4501018e-06
1.2463587e-06
8.5903684e-07
2.1283743e-06
2.0342565e-06
1.7654798e-06
2.4430512e-06
2.5601639e-06
3.1039287e-06
2.9549764e-06
5.4793914e-06
3.6742258e-06
3.9639832e-06
6.2993445e-07
4.8445046e-07
5.1495728e-07
1.549785e-06
1.5187295e-06
1.6238179e-06
1.1741335e-06
1.332692e-06
1.2558236e-06
9.1959166e-07
9.4155512e-07
1.0077801e-06
5.6012246e-07
5.8893589e-07
7.3189957e-07
6.9334074e-07
7.0292898e-07
5.967648e-07
7.2792881e-07
1.8803181e-06
1.7042121e-06
2.2427521e-06
1.1104416e-06
1.5646024e-06
8.5017476e-07
9.2779883e-07
1.2239164e-06
1.1563939e-06
0.00014517702
2.6901329e-06
5.768307e-06
2.2331934e-06
7.5852741e-06
9.6409533e-06
2.7816327e-06
5.6134067e-06
0.076866135
0.019475331
0.0023296119
0.00017861348
0.0027335184
0.0027577247
0.0023587224
0.0012362517
0.00096619632
0.0034691248
0.0034729237
0.0012486669
8.316643e-06
0.001924023
0.00011895911
0.00045983898
9.6204155e-06
0.0030847832
9.6930506e-06
0.0031027644
8.2961085e-06
0.0019553884
0.00036278039
0.0015542716
3.3509652e-06
0.00021893543
0.00018364179
0.00072240549
1.8147848e-06
0.00018817943
0.00041432142
0.0033379039
1.1933321e-05
0.00050885607
0.00041953951
0.0033491175
1.1951533e-05
0.00050967008
0.00036929711
0.0015820486
1.7041701e-06
0.00023357218
6.8765047e-06
2.7575148e-05
1.0718358e-05
1.079475e-05
6.5313162e-06
0.00030985557
5.2572377e-06
0.00026062931
0.00016315816
4.0722969e-06
0.00017014817
0.00045887975
1.1512398e-05
0.00049145734
0.00046273808
1.1564253e-05
0.00049385538
0.00031784803
4.1967019e-06
0.00027082945
0.00034119429
0.0042751781
0.0012296563
0.00017678376
0.0031632474
0.0014684664
0.0047094571
0.0046368068
0.0043927973
0.0012598765
0.0011661445
0.0011831065
0.00033063488
0.0014293758
0.00019388529
0.0030705419
0.00065536362
0.00041125373
0.00025042609
0.00035080777
0.00012439203
0.0001467252
0.00016108414
0.00015023891
0.00074045461
0.00089954584
0.00075042478
0.00090110923
0.0006675926
0.00043185695
0.00016411318
0.00015408936
0.00016666055
0.00017065835
0.00016426318
0.0001703026
0.0025465246
0.0011029237
0.0025036137
0.0011203323
0.00053625435
0.00030052368
0.00047739775
0.00056478075
0.00080115884
0.00056325535
0.0002134076
0.00016922166
0.00016829265
0.00013510942
0.00021849511
0.00016243513
0.00053190066
0.0025969516
0.00038705308
0.0019943968
0.00024283471
0.00034474345
0.0053599742
0.0008944456
0.001056781
0.005332165
0.00088134518
0.001054715
0.00058658562
0.00081732183
0.00058703672
0.00017257503
0.00022009141
0.00017276514
0.00017029183
0.0012694571
0.00017697333
0.00017290878
0.0012757544
0.0001773594
0.00027408709
0.00050002449
0.00037576812
0.00025288372
0.00024310271
0.00033767475
0.00023510506
0.0019378369
0.00033238721
0.00051191141
0.0025204868
0.00037281595
0.00011162198
0.00011906322
0.00012091073
0.0001234359
0.00012320402
0.00011934409
0.00011708844
0.00010846084
0.00010558921
0.00011820892
0.00034267477
0.00039979698
0.00016119356
0.00019166257
0.00031441702
0.00038328391
0.00021239263
0.00021136173
0.00056822244
0.00048519438
0.00026538124
0.00030493947
0.00011179199
0.00013154045
0.00014245732
0.00012610288
0.00013936586
0.00015763664
0.00012914961
0.00015397505
0.00081494006
0.00086997614
0.00082238483
0.0008746191
0.00058258441
0.00050203343
0.00014184805
0.00016123285
0.00015794459
0.00013251019
0.00014418058
0.00016875731
0.00014743089
0.00017013844
0.00014221118
0.00016701193
0.00014713936
0.00016908117
0.0029360363
0.0021097398
0.0012465118
0.00156225
0.0029190095
0.0020735711
0.001588592
0.0012532733
0.00047771595
0.00055739196
0.00033063116
0.00034311081
0.00041049404
0.00054489655
0.00014723172
0.000144511
0.0002111699
0.00019716468
0.00015732968
0.00017867402
0.00029499306
0.00030792135
0.00045238518
0.00045865017
0.00035164493
0.00041649925
0.00023215542
0.00028162026
0.00023417151
0.00027121223
0.00031876475
0.00030276772
0.00053606756
0.0006178969
0.00073180849
0.0007615145
0.00065485283
0.00063202184
0.00019203061
0.00019859619
0.00017129502
0.00016040221
0.00017217374
0.00018490708
0.00048190178
0.00049533407
0.00043321758
0.00035613352
0.00027251377
0.00021577536
0.00030660564
0.00031646203
0.00097158158
0.00083138625
0.0010283573
0.00098152699
0.00096174864
0.00081802101
0.0010222433
0.00097944039
0.00064156722
0.00055658491
0.00075111018
0.00077787565
0.00065669199
0.00067687955
0.00017540522
0.00016368846
0.00020450878
0.00019834968
0.00017683
0.00019010366
0.00017323812
0.0001593058
0.00017561794
0.0001686029
0.00017514139
0.00016186931
0.00017677706
0.0001689724
0.00020857775
0.00026344416
0.00029598483
0.00030475203
0.00047657796
0.00046372565
0.0004169986
0.00034268372
0.00011425598
0.00011680698
0.00012227432
0.00012312573
0.0001224325
0.00012113847
0.00011443726
0.00011150346
0.00010256402
9.6493972e-05
0.00040438517
0.00017395156
0.00036042931
0.00023301071
0.00011430577
0.00012265623
0.00013609074
0.00013258607
0.00013904042
0.0001358813
0.00014592799
0.00014702321
0.0001444954
0.00014615661
0.0023815814
0.0017659979
0.0023674814
0.0017761874
0.00048822973
0.00038856845
0.00047070752
0.00015824416
0.00019076237
0.00017288521
0.00033461826
0.00042032706
0.00038594761
0.00025650299
0.00025979473
0.00028803312
0.00068310724
0.0007936006
0.00087267343
0.00020157326
0.00018535344
0.00022797373
0.00044975518
0.00040231506
0.00024730144
0.00027822844
0.00090949574
0.00095510393
0.00089936689
0.00094871596
0.0007079067
0.00081567319
0.00090238503
0.00018999652
0.00020776548
0.00023449876
0.00016460748
0.00016683935
0.00016648351
0.00016800682
0.00023870192
0.00026822573
0.00043252365
0.00038692187
0.12245933
0.021111635
0.11645681
0.041232041
0.025043653
0.00093314006
0.00021186908
0.00059215991
3.8847722e-06
0.00021152357
0.00021338466
0.0001143111
2.3405637e-05
0.00019883553
0.00024739809
0.00034534831
0.00051307003
0.0003848131
0.00037501143
0.0005504655
0.00049898888
0.0002219543
0.00016412802
0.0001481803
0.00010840925
0.00011842968
0.0001303981
0.00017526346
0.00019398978
0.00026110791
0.00028641514
0.00035987487
0.00037698741
0.00034723782
0.00029215673
0.00022310994
0.00027649399
0.00030581912
0.0003091773
0.00043692591
0.00047045035
0.00042694535
0.0003380463
0.00032353739
0.00046229903
0.00057304915
0.00056295658
0.00041432234
0.00020068764
0.00019992976
0.00018084379
0.00014814963
0.0001278232
0.00013403182
0.0001027813
0.00010098508
0.00010366757
0.00014346194
0.00015842325
0.00021459969
0.00023703337
0.00031222773
0.00033734386
0.00038451071
0.00037672403
0.00024811802
0.00027573006
0.00040540325
0.00037168661
0.0004746304
0.00046291406
0.00018078338
0.00016331642
0.00011636133
0.0090958526
0.0050069538
2.8404213e-06
2.2468599e-06
2.7129562e-06
2.3596157e-06
6.7483274e-09
2.9748185e-06
1.8417195e-06
6.3213796e-09
2.1016073e-06
6.3014715e-09
2.5916303e-06
9.0779167e-09
2.4750974e-06
4.8445093e-07
4.7882518e-07
4.6093008e-07
4.6271497e-07
7.1232998e-09
3.6630748e-09
4.9152991e-07
8.1132678e-10
6.1405674e-09
7.1615848e-09
5.0740147e-07
4.8120684e-07
4.4148176e-07
4.4310478e-07
2.3938704e-06
2.0782391e-06
1.0026573e-06
1.6056392e-06
1.9887059e-06
9.7521958e-06
8.848814e-06
5.9036479e-06
1.1949208e-05
7.7786016e-06
9.7837067e-06
2.362353e-06
4.654306e-06
9.3800292e-07
2.6032901e-06
1.4057146e-06
2.9403744e-06
9.4754477e-07
1.4258498e-06
2.575645e-06
2.9092944e-06
5.2330711e-06
2.2436968e-06
1.8478536e-06
2.2810327e-06
2.1819365e-06
1.7444821e-06
3.2371191e-06
1.8555994e-06
3.9221781e-06
1.8468957e-06
2.2190816e-06
0.0050895724
4.154617e-06
4.5182481e-06
3.7430603e-06
3.9579345e-06
3.4252584e-06
3.2667105e-06
1.0493952e-08
4.3504319e-06
4.3933033e-08
4.521025e-06
1.7226492e-06
2.6814413e-06
2.1949358e-06
4.3096183e-07
1.8198522e-06
8.9590866e-09
3.7702932e-06
8.2015915e-09
3.5928864e-06
7.8447112e-09
3.1167893e-06
1.3241649e-06
7.4987885e-07
2.3719017e-06
5.8402231e-07
6.7813756e-07
5.5710011e-07
1.3097296e-08
1.2609589e-08
2.6826946e-06
3.5624081e-06
5.3449824e-07
6.6370156e-06
5.8375322e-08
5.3397648e-06
2.1272291e-06
8.6713476e-09
8.5232521e-09
7.4850925e-09
6.8389893e-06
6.7417956e-06
6.4016965e-06
6.5838893e-06
1.0760066e-06
8.8379217e-07
6.1261109e-07
6.4303494e-07
5.315673e-07
4.1883263e-06
2.5079238e-06
2.9351409e-06
2.9433834e-06
2.5076144e-06
2.8386981e-06
3.7036586e-06
1.0667508e-05
1.1281129e-05
5.0911623e-06
3.8685521e-06
2.2274239e-06
3.0424895e-06
2.6309482e-06
2.7580784e-06
5.0493032e-06
6.8702452e-06
5.2008151e-06
0.00018566512
0.010119596
0.028949018
0.011091174
2.0520268e-06
1.9213048e-06
2.3776639e-06
2.104871e-06
1.4611185e-05
1.4772529e-05
1.4722931e-05
3.7702659e-08
1.4837172e-05
8.9616605e-09
2.1914648e-06
9.0789989e-09
1.8011491e-06
4.510331e-07
2.3234487e-06
1.6893738e-08
6.862956e-07
1.3540653e-06
1.430415e-07
8.8932865e-07
4.1872384e-07
3.8154262e-06
8.2504933e-06
8.1736244e-07
3.1751682e-06
5.0934154e-06
3.6325337e-06
1.4327261e-05
1.4027998e-05
1.3404108e-05
1.3720366e-05
2.8402386e-06
4.5925705e-08
1.0915273e-05
9.4819106e-08
1.1962411e-05
2.9081924e-06
3.1268142e-06
5.637932e-08
1.2993842e-05
3.8178828e-08
1.2531124e-05
3.4650849e-06
4.2752795e-06
3.7622497e-06
5.1703673e-07
1.3860519e-05
4.4569339e-08
1.0806493e-05
7.5627469e-09
8.7081597e-09
4.9443586e-07
5.7984024e-09
5.641097e-07
8.3111181e-07
2.9893339e-06
4.4214427e-06
1.3909613e-06
5.7918819e-06
3.9162339e-07
1.3511454e-05
2.297664e-05
1.5651875e-05
2.7240587e-05
1.0383736e-05
2.1546033e-05
3.8687321e-06
2.219303e-06
9.0716155e-07
1.3249479e-06
1.5550807e-06
4.3199464e-06
5.5240813e-06
6.7548577e-06
5.8723852e-06
7.8839355e-06
7.0103367e-06
7.7335028e-06
5.657707e-06
7.4033745e-06
8.3897271e-07
5.3034977e-06
1.4031672e-05
9.5363322e-06
3.4152166e-06
1.3002406e-06
2.003981e-06
5.9289465e-06
2.2021406e-05
5.1381717e-06
3.7709803e-06
1.9397264e-05
4.8298167e-06
6.2399057e-06
5.2094323e-06
7.344232e-06
1.1811239e-06
4.808213e-06
1.6409439e-05
1.8835398e-05
4.9332136e-06
5.2160193e-06
6.363158e-06
6.6946432e-06
1.6689479e-05
1.9044651e-05
2.3336642e-05
2.1256588e-05
3.1689971e-05
3.2932775e-05
4.423881e-06
3.3814249e-06
1.416997e-05
1.14744e-05
2.8358865e-06
2.6666212e-06
9.9936594e-07
1.1328956e-06
2.0231698e-06
2.528512e-05
2.7098125e-05
4.9405326e-06
4.7464959e-06
6.306356e-06
5.1485629e-06
3.0303386e-05
2.8772072e-05
7.6740836e-06
6.4854973e-06
6.6982799e-06
6.1928347e-06
3.3727544e-05
3.6453614e-05
8.9085563e-06
7.5534025e-06
7.9341354e-06
7.2587721e-06
8.6331697e-06
7.5012532e-06
3.7770383e-05
3.8374152e-05
5.5507008e-06
6.1070284e-06
7.0556572e-06
6.6993425e-06
7.8391152e-07
5.2288617e-06
5.0054296e-06
1.3887333e-05
1.2206678e-05
3.0652345e-06
2.6864763e-06
1.4939423e-06
1.4661303e-06
2.6117244e-06
1.7443456e-06
5.682938e-06
4.6101114e-06
5.4237116e-06
4.0493198e-06
4.1432607e-06
2.9188075e-06
4.4985923e-06
3.8116296e-06
6.6706599e-06
4.9020956e-06
5.8271074e-06
4.3373631e-06
7.0911471e-06
6.6054073e-06
1.1026036e-06
1.3236639e-06
4.5301203e-06
3.9657949e-06
1.4295531e-05
1.5677856e-05
1.3628303e-05
1.2122244e-05
8.8816476e-06
9.8203367e-06
1.1377418e-05
6.2361347e-06
7.4390063e-06
5.693305e-06
5.9431209e-06
5.741876e-06
1.3711365e-05
1.0690266e-05
1.0699945e-05
6.8238004e-06
7.1508978e-06
7.4859548e-06
3.0064329e-05
2.8539354e-05
3.1448866e-05
3.4068141e-05
3.2760666e-05
3.2691137e-05
3.4549766e-05
3.4800807e-05
3.3924836e-05
3.5459654e-05
3.5174752e-05
3.6727011e-05
3.6110134e-05
3.578501e-05
3.6951798e-05
3.8928373e-05
3.7037934e-05
3.8212767e-05
3.5613036e-05
3.8146796e-05
3.6389942e-05
3.7214051e-05
3.4763289e-05
3.522932e-05
3.3793758e-05
3.6262821e-05
3.7447926e-05
3.87973e-05
3.7934616e-05
3.8356207e-05
3.6930372e-05
3.729818e-05
3.6373465e-05
3.7844325e-05
4.6746932e-06
5.5361482e-06
5.9187959e-06
1.0754303e-05
3.0368922e-05
4.3741515e-05
3.8880394e-05
3.8746568e-06
3.2888764e-06
8.6482117e-06
5.4266038e-06
5.8821454e-06
7.3823689e-06
7.0571466e-06
3.3550771e-05
3.5424934e-05
3.6033827e-05
3.4801509e-05
3.4172176e-05
9.0568017e-06
8.1682289e-06
3.499838e-05
3.4034388e-05
8.3902653e-06
3.5819729e-05
3.6454763e-05
3.7200526e-05
3.662406e-05
5.9395996e-06
6.4408024e-06
4.9451693e-06
1.6567945e-05
1.4282182e-05
8.9829236e-06
1.1837764e-05
8.9263428e-06
3.5198465e-05
3.5924511e-05
3.8374367e-05
3.7358127e-05
3.7171479e-05
3.6593403e-05
3.9093172e-05
3.9515602e-05
3.8427985e-05
3.7669011e-05
3.8214036e-05
4.1429785e-05
3.5749437e-05
3.6635238e-05
3.5676667e-05
3.7357469e-05
3.7668542e-05
3.6124808e-05
3.9504254e-05
2.6881559e-06
1.9425977e-06
2.7594877e-06
4.4781589e-06
4.2759573e-06
3.262839e-06
3.5328603e-06
5.8692036e-06
5.4806451e-06
7.5174932e-06
1.2508008e-06
3.7829941e-06
0.0019844775
0.0012476078
0.0083411337
0.0075256886
0.0029275997
0.010586809
0.0047953166
0.0012040487
1.2495557e-06
5.3310251e-07
1.1791912e-06
1.6281545e-07
1.5885565e-06
1.4940186e-06
9.3258853e-07
9.9285734e-07
2.0783104e-07
2.2559075e-07
2.063357e-08
7.5087224e-07
1.0506919e-07
6.0635006e-09
1.3250854e-06
5.6889443e-09
1.1135917e-06
1.6906316e-06
7.7435594e-09
3.453027e-07
2.717331e-07
1.4064285e-06
7.2856428e-09
3.2481852e-07
8.6173999e-07
2.9884676e-09
2.0668661e-07
2.5641126e-07
1.0519958e-06
4.2271235e-09
2.1688309e-07
2.0260467e-07
2.0073044e-09
6.4496821e-09
5.3113082e-09
8.2262417e-09
3.6745539e-07
2.8816658e-07
6.85556e-09
3.0582158e-07
1.0424941e-09
2.0055164e-07
2.4212734e-07
4.8792979e-09
2.2890549e-07
7.2730801e-06
7.2437149e-06
9.3643313e-07
1.4473894e-06
8.6385004e-07
7.6781988e-07
1.8513326e-06
1.5337155e-05
1.5534687e-05
1.5168461e-06
8.3445487e-06
1.7663828e-06
1.0552804e-06
1.2617537e-05
6.9124798e-07
5.4458715e-07
6.5027296e-07
3.6416264e-07
4.1916005e-07
5.1574683e-07
4.4233493e-07
1.2172876e-06
1.1336177e-06
3.3998267e-07
4.5379824e-07
3.4713713e-06
3.0117036e-06
2.170415e-06
2.8582664e-06
3.6453154e-06
4.2580786e-06
4.490246e-06
1.7090017e-06
1.7524416e-06
6.7395655e-06
1.0081711e-05
8.6004231e-06
7.6749392e-07
9.1519963e-07
9.699083e-06
9.7274113e-07
1.2123218e-06
7.4046279e-07
6.9099255e-07
1.2164792e-06
5.2263268e-07
6.4585835e-07
1.3742934e-06
9.567823e-07
6.6808596e-07
2.3917377e-06
2.0982286e-06
2.7513392e-06
3.1723322e-06
2.37614e-06
2.9297891e-06
2.0317977e-05
4.0588266e-06
3.2878308e-06
1.8193871e-05
3.8463066e-06
1.583113e-06
1.4867232e-06
2.2790511e-06
1.9233992e-06
1.3696745e-06
1.3848808e-06
1.7933544e-06
1.2975581e-06
1.0467366e-06
5.6363338e-07
1.6470204e-06
1.344381e-06
1.0434665e-05
1.7572025e-06
2.2313553e-06
1.1966293e-05
1.8839747e-06
3.8575386e-07
2.1515484e-06
2.5129571e-06
1.6843967e-06
2.1897944e-06
1.6895326e-06
2.6882828e-06
2.8206499e-06
3.2665479e-06
3.4333126e-06
3.9968614e-06
4.2088024e-06
8.1030372e-07
1.0741846e-06
1.9334163e-06
2.1216862e-06
1.6775445e-06
2.0246267e-06
1.1691509e-06
1.2115495e-06
7.355198e-07
5.7698947e-07
6.1230876e-07
3.9974669e-07
4.9016899e-07
4.6617812e-07
3.4382422e-06
3.3121467e-06
3.161507e-06
2.9629768e-06
2.8164179e-06
2.7011495e-06
3.6155959e-06
3.8356985e-06
4.2173316e-06
4.0403692e-06
4.444046e-06
4.7381645e-06
8.2040862e-06
8.6611644e-06
1.3681388e-05
9.2356454e-06
1.2222232e-05
9.9099282e-06
1.1554705e-06
1.0505554e-06
6.7310797e-07
5.7837731e-07
6.114617e-07
8.6161484e-07
2.277715e-06
2.506882e-06
2.0147333e-06
2.4175705e-06
2.5976558e-06
2.6265039e-06
1.5843337e-06
1.7057329e-06
2.1742636e-06
2.1655947e-06
1.8337548e-06
2.0475348e-06
1.3037042e-06
1.5162993e-06
1.2789689e-06
1.5893548e-06
1.6576041e-06
1.7091925e-06
8.1208752e-07
8.6118059e-07
8.6196621e-07
1.0426035e-06
1.0350385e-06
1.1055827e-06
1.1088878e-06
1.0854527e-06
7.3582033e-07
8.4225945e-07
7.2597072e-07
9.1775583e-07
3.1259858e-06
2.6404939e-06
2.1482502e-06
2.5801538e-06
3.0670964e-06
2.7864457e-06
4.2864433e-06
3.3906733e-06
3.4592867e-06
2.700108e-06
3.6475222e-06
3.2170769e-06
1.2072149e-06
1.4863744e-06
1.6248884e-06
1.6031448e-06
1.9991732e-06
2.1191468e-06
2.0050849e-06
1.714253e-06
2.4922339e-06
2.4314229e-06
2.5643181e-06
2.960879e-06
3.1093768e-06
3.6100648e-06
3.7976809e-06
4.4342202e-06
9.2629203e-07
2.2166215e-06
1.9233633e-06
1.3423554e-06
3.2713038e-06
3.1135542e-06
2.6693094e-06
3.8040529e-06
4.0044211e-06
4.6857693e-06
1.0453666e-05
1.3396138e-05
1.175007e-05
1.1941378e-05
9.9471493e-07
7.6191497e-07
8.1422456e-07
2.3793283e-06
2.31346e-06
2.4840321e-06
1.8171167e-06
2.066272e-06
1.9528181e-06
1.4443594e-06
1.4681897e-06
1.5793779e-06
9.2433178e-07
9.781611e-07
1.1764612e-06
1.1287262e-06
9.6598551e-07
1.1712909e-06
2.9287838e-06
2.6525877e-06
3.4792198e-06
3.5824573e-06
2.8861427e-06
3.0376579e-06
1.3558596e-06
1.4761565e-06
1.9243116e-06
1.8238685e-06
)


1497
(
1.6354457e-07
3.9733481e-06
3.4382297e-06
2.8508523e-06
3.2790597e-06
4.1708223e-06
2.2548165e-06
2.7228427e-06
2.3680378e-06
3.7848262e-06
8.232803e-09
3.6066333e-06
6.7732394e-09
2.9858598e-06
7.874209e-09
3.1284468e-06
4.3675688e-06
4.53896e-06
1.8268772e-06
1.8481405e-06
6.3437392e-09
2.1089914e-06
6.3242484e-09
2.6010851e-06
9.1102497e-09
2.4840016e-06
2.2659131e-07
1.0553521e-07
5.5919411e-07
4.8624719e-07
4.805255e-07
4.6257254e-07
4.6439439e-07
7.1495657e-09
7.5130258e-09
3.6758013e-09
4.9324052e-07
8.1417939e-10
6.1629927e-09
7.1872917e-09
5.3355051e-07
5.0926379e-07
4.8289416e-07
4.4305939e-07
4.4471486e-07
2.0858948e-06
1.0062134e-06
1.6113608e-06
1.9959487e-06
2.3706929e-06
5.924715e-06
9.412467e-07
1.4105984e-06
9.5086447e-07
1.8623044e-06
1.4308122e-06
3.2485235e-06
2.1899755e-06
1.7507137e-06
1.8533101e-06
0.069248455
0.10983432
0.045848314
0.014311209
0.0094239604
0.0046666787
0.014153123
0.011116108
0.0044851091
0.0011575818
0.0028285933
0.0071493864
0.0023021025
0.002948469
0.01473737
0.0071997392
0.0042655426
0.002468031
0.032626274
0.0048612602
1.931837e-06
1.2557207e-06
5.3548814e-07
1.1850082e-06
2.0634484e-06
1.59685e-06
1.5017731e-06
9.3690494e-07
9.9753342e-07
2.3915763e-06
2.1173861e-06
2.0876145e-07
2.0725847e-08
7.5427848e-07
9.1287015e-09
1.8109331e-06
6.0934345e-09
1.3317863e-06
5.7168414e-09
1.1189751e-06
9.011428e-09
2.2038779e-06
4.2102167e-07
1.6996426e-06
7.7839966e-09
3.4710499e-07
2.7307838e-07
1.4136099e-06
7.3233882e-09
3.2650583e-07
8.6571647e-07
3.0024606e-09
2.0764526e-07
2.5766375e-07
1.057015e-06
4.2469885e-09
2.1790182e-07
4.535316e-07
2.3368218e-06
1.6996237e-08
6.9030838e-07
1.3622658e-06
1.439078e-07
8.9462148e-07
5.1928043e-07
1.3918321e-05
1.0851903e-05
2.0352181e-07
2.0163729e-09
8.7552576e-09
6.4821738e-09
5.3369206e-09
7.6054199e-09
3.9373414e-07
8.2698209e-09
3.6940119e-07
2.8961281e-07
6.8904667e-09
3.0737779e-07
1.0478086e-09
2.0147045e-07
2.4329449e-07
4.9025223e-09
2.2999461e-07
4.9722601e-07
5.8316511e-09
5.6734557e-07
8.3617704e-07
3.0020868e-06
4.4401599e-06
1.3994046e-06
5.8164699e-06
1.453462e-06
8.6762249e-07
7.711861e-07
7.3090162e-06
1.0439373e-05
7.2784757e-06
9.405957e-07
1.523163e-06
1.859108e-06
1.5405765e-05
1.56058e-05
1.3585808e-05
8.3841635e-06
1.7738579e-06
1.0599327e-06
1.2675089e-05
1.2224969e-06
1.1384969e-06
3.4148892e-07
4.5580516e-07
8.4355625e-07
6.9485103e-07
5.472802e-07
6.5363537e-07
3.6579731e-07
4.2110227e-07
5.1826328e-07
4.4441821e-07
1.7159456e-06
1.7595366e-06
3.4864339e-06
3.0244433e-06
2.1791799e-06
2.8701916e-06
3.6612922e-06
4.2773175e-06
5.3285581e-06
4.5107427e-06
2.2324066e-06
9.121938e-07
1.3326958e-06
1.5643189e-06
7.9231593e-06
5.6845367e-06
7.4397797e-06
6.7725163e-06
1.0128855e-05
9.5867324e-06
1.3800999e-06
9.6094231e-07
6.7102499e-07
8.6438859e-06
7.7128231e-07
9.1992311e-07
9.7495466e-06
1.1875617e-06
9.7779999e-07
1.2179433e-06
7.4406913e-07
6.9424084e-07
1.2220537e-06
5.2497673e-07
6.488459e-07
1.5896545e-06
2.4020934e-06
2.1068213e-06
2.7629344e-06
3.1862463e-06
2.3865774e-06
2.9423107e-06
4.0775169e-06
3.3024554e-06
3.8639576e-06
1.3074358e-06
2.0156574e-06
1.4931715e-06
2.2889999e-06
1.9319807e-06
1.3759238e-06
1.3909494e-06
1.8014066e-06
1.3030766e-06
1.0512658e-06
5.6612014e-07
1.6537703e-06
1.3505865e-06
1.0483717e-05
1.7652138e-06
2.2412397e-06
1.2021816e-05
1.8925077e-06
3.87491e-07
1.6911591e-06
2.1601564e-06
2.5232423e-06
1.69621e-06
2.1985081e-06
2.6992709e-06
2.8322864e-06
3.2804631e-06
3.4480206e-06
4.0146109e-06
4.2273935e-06
4.9558869e-06
5.2400509e-06
6.3934501e-06
6.7269441e-06
8.139187e-07
1.0789741e-06
1.9414718e-06
2.1307205e-06
1.6846947e-06
2.0333504e-06
1.1742823e-06
1.2169491e-06
7.8813081e-07
7.3942098e-07
5.7989186e-07
6.1541076e-07
4.0157616e-07
4.925212e-07
4.6839427e-07
3.4529933e-06
3.3263761e-06
3.1748539e-06
2.9753768e-06
2.8280461e-06
2.7123551e-06
3.6313209e-06
3.8527453e-06
4.0583742e-06
4.2362198e-06
5.2531374e-06
5.0287538e-06
4.4639997e-06
4.7600164e-06
3.4011323e-06
2.8525493e-06
2.6827074e-06
1.0049977e-06
1.1393858e-06
2.0353913e-06
3.383325e-05
7.5904728e-06
8.9534244e-06
5.5767304e-06
6.1363957e-06
7.0897911e-06
6.7319122e-06
8.2450729e-06
8.7028463e-06
9.9569354e-06
9.283106e-06
1.1607023e-06
1.055371e-06
6.7610654e-07
5.8097967e-07
6.1425557e-07
8.6557628e-07
2.2874371e-06
2.5176865e-06
2.0230573e-06
2.4275604e-06
2.6085384e-06
2.6377215e-06
1.5911323e-06
1.7131472e-06
2.1835828e-06
2.1750864e-06
1.8418446e-06
2.0565742e-06
1.3095824e-06
1.5231842e-06
1.2845794e-06
1.5962782e-06
1.6650905e-06
1.7167795e-06
8.1616409e-07
8.6542143e-07
8.663251e-07
1.0479732e-06
1.1085249e-06
1.3308575e-06
1.0405165e-06
1.1113147e-06
1.1140849e-06
1.0905068e-06
7.3934507e-07
8.4634016e-07
7.2941555e-07
9.2204389e-07
3.13956e-06
2.6521455e-06
2.1577449e-06
2.591302e-06
3.0801844e-06
2.798425e-06
3.4747199e-06
2.7122284e-06
3.664025e-06
3.2320006e-06
3.0828881e-06
2.7016277e-06
1.502339e-06
1.4742116e-06
2.626841e-06
1.7543097e-06
1.2128468e-06
1.4932013e-06
1.6323105e-06
1.6104646e-06
2.0080377e-06
2.1285689e-06
2.0140667e-06
1.7220305e-06
2.5023344e-06
2.4411813e-06
2.5747035e-06
2.9732084e-06
3.1224463e-06
3.6256775e-06
3.8141978e-06
4.4541392e-06
4.6958946e-06
5.5619916e-06
5.9466955e-06
1.0806484e-05
3.0461077e-05
4.3872987e-05
9.304361e-07
2.2259447e-06
1.9316778e-06
1.3483106e-06
3.2852035e-06
3.1266068e-06
2.6802272e-06
3.8207623e-06
4.0219839e-06
4.9678999e-06
4.7070943e-06
3.3086625e-06
9.1015388e-06
5.9677375e-06
6.4716321e-06
1.0505307e-05
1.1999362e-05
1.1809638e-05
9.99252e-07
7.6534696e-07
8.179503e-07
2.3894374e-06
2.323107e-06
2.494493e-06
1.824994e-06
2.0752644e-06
1.9614101e-06
1.4508412e-06
1.4746453e-06
1.5864287e-06
9.2894669e-07
9.8310939e-07
1.257497e-06
1.1826721e-06
1.1340461e-06
9.7064028e-07
1.176837e-06
2.9416994e-06
2.6642547e-06
3.4943005e-06
2.8991519e-06
3.0515369e-06
2.7033824e-06
1.9534702e-06
2.7751676e-06
1.3621519e-06
1.48297e-06
1.9329924e-06
1.8321577e-06
0.00026701174
3.8277665e-06
8.2780274e-06
3.1855253e-06
5.1100733e-06
1.4783929e-05
4.2922865e-06
1.1523134e-05
7.5176049e-06
8.6852201e-06
1.0576473e-07
8.693439e-07
5.8270705e-07
2.206823e-06
8.7659899e-07
1.1340849e-06
1.7002296e-06
2.2667573e-06
2.8156019e-06
9.7199672e-09
3.3185632e-06
8.6115476e-09
2.967783e-06
7.9249273e-07
4.019731e-06
3.8746245e-06
3.5260689e-06
1.5759734e-08
3.7064721e-06
8.0975434e-07
7.8465512e-07
1.5398012e-06
2.2102294e-06
2.316786e-06
1.5515309e-06
1.5439505e-06
0.00013911373
0.00043137716
0.019874702
0.0025587674
0.0053631519
0.075134961
0.01839312
0.002699866
0.0010437269
0.0022968755
0.00049305668
0.00039768881
0.0034341067
0.0033969113
0.0012216351
0.0009705593
0.00021217631
9.4248346e-06
0.003052802
0.00065856559
0.0023314317
8.2963336e-06
0.0018947026
2.1095817e-06
0.00061504012
1.685474e-06
0.00032264683
0.000410202
0.0033083471
8.0548577e-06
0.00052248236
0.00091793272
0.0031081932
5.4022173e-06
0.00055576417
0.0003584344
0.0015304262
4.8479943e-06
0.00021026765
9.3501518e-05
0.00077129359
3.9537527e-06
0.00017204321
7.6751784e-05
0.00026255047
3.2848781e-07
4.5845661e-05
1.0187831e-05
0.00012379619
7.0717994e-06
2.6063753e-06
1.2769529e-06
0.00045595241
1.0032976e-05
0.00049277424
0.00069535591
1.5155717e-05
0.00060978615
0.00030531016
5.8968085e-06
0.00025505109
0.00011440655
3.2124112e-06
0.00014029907
6.3455181e-05
8.0845122e-07
5.3170826e-05
0.00093356195
0.0050039689
0.0012999891
0.00027334321
0.0012169446
0.00083132645
0.0017224708
0.0038307827
0.0013888621
0.00078029842
0.0010924306
0.00080533991
0.00082000705
0.0015388244
0.00031129406
0.0035181261
0.00073609248
0.00093730778
0.0011155209
0.0009790853
0.00017119422
0.00017854449
0.00016448675
0.0001750838
0.00064582079
0.00038926446
0.00017852379
0.00032130946
0.00014778638
8.9057438e-05
0.00011559191
9.8658332e-05
0.00012166344
0.00014014845
0.0001604318
0.0001458677
0.0011468199
0.0010158325
0.0021514464
0.00070735291
0.0010550375
0.001178094
0.0012274633
0.00097202823
0.00089124691
0.0011992463
0.00026472452
0.00017307696
0.00019861713
0.00019063523
0.00028700518
0.00020090613
0.00017382939
0.0011684818
0.00016108333
0.0010208713
0.00012783057
0.00015346157
0.0024332508
0.00023333144
0.00040668528
0.0032103607
0.00077713054
0.00048654915
0.00017454014
0.00019813606
0.00013062667
0.00011841739
0.00012136758
0.00010708771
0.00016599208
0.00106278
0.00014973449
0.00012327474
0.00095731846
0.00014342102
0.00053907244
0.00091414884
0.00058130845
0.00046835102
0.00032742335
0.00050101116
0.00029770291
0.0021171859