/*--------------------------------*- C++ -*----------------------------------*\
  =========                 |
  \\      /  F ield         | OpenFOAM: The Open Source CFD Toolbox
   \\    /   O peration     | Website:  https://openfoam.org
    \\  /    A nd           | Version:  8
     \\/     M anipulation  |
\*---------------------------------------------------------------------------*/
/*   Windows 32 and 64 bit porting by blueCAPE: http://www.bluecape.com.pt   *\
|  Based on Windows porting (2.0.x v4) by Symscape: http://www.symscape.com   |
\*---------------------------------------------------------------------------*/
FoamFile
{
    version     2.0;
    format      ascii;
    class       scalarListList;
    location    "constant/vegetation";
    object      kcLAIboundary;
}
// * * * * * * * * * * * * * * * * * * * * * * * * * * * * * * * * * * * * * //


5
(

1070
(
1000
1000
1000
1000
1000
0
1000
1000
1000
1000
1000
0
0
0
0
0
1000
1000
1000
1000
1000
1000
1000
1000
1000
1000
1000
1000
1000
1000
1000
1000
1000
1000
1000
1000
1000
1000
1000
1000
1000
1000
1000
1000
1000
1000
1000
1000
1000
1000
1000
1000
1000
1000
1000
1000
1000
1000
1000
1000
1000
1000
1000
1000
1000
1000
1000
1000
1000
1000
1000
1000
1000
1000
1000
1000
1000
1000
1000
1000
1000
1000
1000
1000
1000
1000
0
1000
0
1000
1000
1000
1000
1000
0
0
0
0
1000
0
1000
0
1000
0
0
0
0
0
0
0
0
0
0
0
1000
1000
1000
1000
0
0
0
0
0
0
0
0
1000
1000
1000
1000
1000
1000
1000
1000
1000
1000
1000
1000
1000
1000
1000
1000
1000
1000
1000
1000
1000
1000
1000
1000
1000
1000
1000
1000
1000
1000
0
1000
0
1000
0
1000
0
1000
1000
1000
1000
1000
1000
0
0
1000
0
1000
0
1000
0
1000
0
1000
0
1000
0
0
0
0
0
0
0
0
1000
1000
1000
1000
1000
1000
1000
0
0
0
0
0
0
0
0
1000
1000
1000
1000
1000
1000
1000
1000
1000
1000
1000
1000
1000
1000
1000
1000
1000
1000
1000
1000
1000
1000
1000
1000
1000
1000
0
0
0
1000
1000
1000
0
0
0
1000
1000
1000
1000
1000
1000
1000
1000
1000
1000
1000
1000
1000
1000
1000
0
0
0
0
0
0
1000
1000
1000
0
0
1000
1000
1000
0
0
0
1000
1000
1000
0
0
0
0
0
0
0
0
0
0
0
0
0
0
0
0
1000
1000
1000
1000
1000
1000
0
0
0
0
0
0
0
0
0
0
0
0
1000
1000
1000
0
0
0
0
0
0
0
0
0
0
0
0
0
1000
1000
1000
1000
1000
1000
0
0
0
0
0
0
0
0
0
0
0
0
1000
1000
1000
1000
1000
0
0
0
0
0
0
0
0
1000
0
0
0
1000
0
0
0
1000
0
0
0
1000
0
0
0
1000
0
0
0
1000
0
0
0
1000
0
0
0
1000
0
0
0
1000
0
0
0
1000
0
0
0
1000
1000
1000
1000
1000
0
0
0
0
0
0
0
0
0
0
0
0
1000
1000
1000
1000
0
0
0
0
0
0
0
0
1000
1000
1000
1000
1000
1000
1000
1000
1000
1000
1000
1000
1000
1000
1000
1000
1000
1000
1000
1000
1000
1000
1000
1000
1000
1000
1000
1000
1000
1000
0
0
0
0
0
0
0
0
0
0
0
0
0
0
0
0
1000
1000
1000
1000
1000
1000
1000
1000
1000
1000
1000
1000
1000
1000
0
0
0
0
0
0
0
0
0
0
0
0
0
0
0
0
1000
1000
1000
1000
1000
1000
0
0
0
0
1000
1000
1000
1000
1000
1000
0
0
0
0
0
0
0
0
0
0
0
0
0
0
0
0
0
0
0
0
0
0
0
0
0
0
0
0
0
0
0
0
0
0
0
0
0
0
0
0
0
0
0
0
0
0
0
0
0
0
0
0
1000
1000
1000
1000
1000
1000
1000
1000
1000
1000
1000
1000
0
0
0
0
0
0
0
0
0
0
0
0
0
0
0
0
0
0
0
0
0
0
0
0
1000
1000
1000
1000
1000
1000
1000
1000
1000
1000
1000
1000
0
0
1000
1000
1000
1000
1000
1000
1000
1000
1000
1000
1000
1000
1000
1000
1000
1000
1000
1000
1000
1000
1000
1000
1000
1000
1000
1000
1000
1000
1000
1000
1000
1000
1000
1000
1000
1000
0
0
0
0
0
0
0
0
0
0
0
0
0
0
0
0
0
0
0
1000
1000
1000
1000
1000
1000
1000
1000
0
0
0
0
0
0
0
0
0
0
0
0
0
0
0
0
1000
1000
1000
1000
1000
1000
1000
1000
1000
1000
1000
1000
1000
1000
1000
1000
1000
1000
1000
1000
1000
1000
1000
1000
1000
1000
1000
1000
1000
1000
1000
1000
1000
1000
1000
1000
1000
1000
1000
1000
1000
1000
1000
1000
1000
1000
1000
1000
1000
1000
1000
1000
1000
1000
1000
1000
1000
1000
1000
1000
1000
1000
1000
1000
1000
1000
1000
1000
1000
1000
1000
1000
1000
1000
1000
1000
1000
1000
1000
1000
1000
1000
1000
1000
1000
1000
1000
1000
0
0
0
0
0
0
0
0
1000
0
0
1000
0
0
1000
0
0
1000
0
0
1000
0
0
1000
0
0
1000
0
0
1000
0
0
1000
0
0
1000
0
1000
0
1000
1000
1000
1000
1000
1000
1000
1000
0
1000
1000
0
1000
1000
0
1000
1000
0
1000
1000
0
1000
1000
0
1000
1000
1000
1000
1000
1000
0
1000
1000
0
1000
1000
0
1000
1000
0
1000
1000
1000
1000
1000
1000
1000
1000
1000
1000
1000
1000
0
0
0
0
0
0
0
0
1000
1000
1000
1000
1000
1000
1000
0
0
0
0
0
0
0
0
1000
1000
1000
0
0
1000
1000
1000
1000
1000
1000
1000
0
0
0
0
0
0
0
0
0
0
0
0
0
1000
1000
1000
1000
0
0
0
1000
1000
0
0
0
1000
1000
0
0
0
1000
1000
0
0
0
1000
1000
0
0
0
1000
1000
1000
1000
1000
1000
1000
1000
1000
0
0
0
1000
1000
0
0
0
1000
1000
0
0
0
1000
1000
0
0
0
1000
1000
1000
1000
1000
1000
1000
1000
1000
1000
1000
1000
1000
1000
1000
1000
1000
1000
1000
1000
1000
1000
1000
1000
1000
1000
1000
1000
1000
1000
1000
1000
1000
1000
1000
1000
1000
1000
1000
1000
1000
1000
1000
1000
1000
1000
1000
1000
1000
1000
0
1000
1000
1000
1000
1000
1000
1000
1000
1000
1000
1000
1000
1000
1000
1000
1000
1000
1000
0
0
0
0
0
0
0
0
0
0
1000
1000
1000
1000
0
0
0
0
0
0
0
0
)


1070
(
0
0
1000
1000
1000
0
0
1000
1000
1000
1000
0
0
0
0
0
1000
1000
1000
1000
1000
1000
1000
1000
1000
1000
1000
1000
1000
1000
1000
1000
1000
1000
1000
1000
1000
1000
1000
1000
1000
1000
1000
1000
1000
1000
1000
1000
1000
1000
1000
1000
1000
1000
1000
1000
1000
1000
1000
1000
1000
1000
1000
1000
1000
1000
1000
1000
1000
1000
1000
1000
1000
1000
1000
1000
1000
1000
1000
1000
1000
1000
1000
1000
1000
1000
0
1000
0
1000
1000
1000
1000
1000
0
0
0
0
1000
0
1000
0
1000
0
0
0
0
0
0
0
0
0
0
0
1000
1000
1000
1000
0
0
0
0
0
0
0
0
1000
1000
1000
1000
1000
1000
1000
1000
1000
1000
1000
1000
1000
1000
1000
1000
1000
1000
1000
1000
1000
1000
1000
1000
1000
1000
1000
1000
1000
1000
0
1000
0
1000
0
1000
0
1000
1000
1000
1000
1000
1000
0
0
1000
0
1000
0
1000
0
1000
0
1000
0
1000
0
0
0
0
0
0
0
0
1000
1000
1000
1000
1000
1000
1000
0
0
0
0
0
0
0
0
1000
1000
1000
1000
1000
1000
1000
1000
1000
1000
1000
1000
1000
1000
1000
1000
1000
1000
1000
1000
1000
1000
1000
1000
1000
1000
0
0
0
1000
1000
1000
0
0
0
1000
1000
1000
1000
1000
1000
1000
1000
1000
1000
1000
1000
1000
1000
1000
0
0
0
0
0
0
1000
1000
1000
0
0
1000
1000
1000
0
0
0
1000
1000
1000
0
0
0
0
0
0
0
0
0
0
0
0
0
0
0
0
1000
1000
1000
1000
1000
1000
0
0
0
0
0
0
0
0
0
0
0
0
1000
1000
1000
0
0
0
0
0
0
0
0
0
0
0
0
0
1000
1000
1000
1000
1000
1000
0
0
0
0
0
0
0
0
0
0
0
0
1000
1000
1000
1000
1000
0
0
0
0
0
0
0
0
1000
0
0
0
1000
0
0
0
1000
0
0
0
1000
0
0
0
1000
0
0
0
1000
0
0
0
1000
0
0
0
1000
0
0
0
1000
0
0
0
1000
0
0
0
1000
1000
1000
1000
1000
0
0
0
0
0
0
0
0
0
0
0
0
1000
1000
1000
1000
0
0
0
0
0
0
0
0
1000
1000
1000
1000
1000
1000
1000
1000
1000
1000
1000
1000
1000
1000
1000
1000
1000
1000
1000
1000
1000
1000
1000
1000
1000
1000
1000
1000
1000
1000
0
0
0
0
0
0
0
0
0
0
0
0
0
0
0
0
1000
1000
1000
1000
1000
1000
1000
1000
1000
1000
1000
1000
1000
1000
0
0
0
0
0
0
0
0
0
0
0
0
0
0
0
0
1000
1000
1000
1000
1000
1000
0
0
0
0
1000
1000
1000
1000
1000
1000
0
0
0
0
0
0
0
0
0
0
0
0
0
0
0
0
0
0
0
0
0
0
0
0
0
0
0
0
0
0
0
0
0
0
0
0
0
0
0
0
0
0
0
0
0
0
0
0
0
0
0
0
1000
1000
1000
1000
1000
1000
1000
1000
1000
1000
1000
1000
0
0
0
0
0
0
0
0
0
0
0
0
0
0
0
0
0
0
0
0
0
0
0
0
1000
1000
1000
1000
1000
1000
1000
1000
1000
1000
1000
1000
0
0
1000
1000
1000
1000
1000
1000
1000
1000
1000
1000
1000
1000
1000
1000
1000
1000
1000
1000
1000
1000
1000
1000
1000
1000
1000
1000
1000
1000
1000
1000
1000
1000
1000
1000
1000
1000
0
0
0
0
0
0
0
0
0
0
0
0
0
0
0
0
0
0
0
1000
1000
1000
1000
1000
1000
1000
1000
0
0
0
0
0
0
0
0
0
0
0
0
0
0
0
0
1000
1000
1000
1000
1000
1000
1000
1000
1000
1000
1000
1000
1000
1000
1000
1000
1000
1000
1000
1000
1000
1000
1000
1000
1000
1000
1000
1000
1000
1000
1000
1000
1000
1000
1000
1000
1000
1000
1000
1000
1000
1000
1000
1000
1000
1000
1000
1000
1000
1000
1000
1000
1000
1000
1000
1000
1000
1000
1000
1000
1000
1000
1000
1000
1000
1000
1000
1000
1000
1000
1000
1000
1000
1000
1000
1000
1000
1000
1000
1000
1000
1000
1000
1000
1000
1000
1000
1000
0
0
0
0
0
0
0
0
1000
0
0
1000
0
0
1000
0
0
1000
0
0
1000
0
0
1000
0
0
1000
0
0
1000
0
0
1000
0
0
1000
0
1000
0
1000
1000
1000
1000
1000
1000
1000
1000
0
1000
1000
0
1000
1000
0
1000
1000
0
1000
1000
0
1000
1000
0
1000
1000
1000
1000
1000
1000
0
1000
1000
0
1000
1000
0
1000
1000
0
1000
1000
1000
1000
1000
1000
1000
1000
1000
1000
1000
1000
0
0
0
0
0
0
0
0
1000
1000
1000
1000
1000
1000
1000
0
0
0
0
0
0
0
0
1000
1000
1000
0
0
1000
1000
1000
1000
1000
1000
1000
0
0
0
0
0
0
0
0
0
0
0
0
0
1000
1000
1000
1000
0
0
0
1000
1000
0
0
0
1000
1000
0
0
0
1000
1000
0
0
0
1000
1000
0
0
0
1000
1000
1000
1000
1000
1000
1000
1000
1000
0
0
0
1000
1000
0
0
0
1000
1000
0
0
0
1000
1000
0
0
0
1000
1000
1000
1000
1000
1000
1000
1000
1000
1000
1000
1000
1000
1000
1000
1000
1000
1000
1000
1000
1000
1000
1000
1000
1000
1000
1000
1000
1000
1000
1000
1000
1000
1000
1000
1000
1000
1000
1000
1000
1000
1000
1000
1000
1000
1000
1000
1000
1000
1000
0
1000
1000
1000
1000
1000
1000
1000
1000
1000
1000
1000
1000
1000
1000
1000
1000
1000
1000
0
0
0
0
0
0
0
0
0
0
1000
1000
1000
1000
0
0
0
0
0
0
0
0
)


1070
(
0
0
1000
1000
1000
0
0.017394422
1000
1000
1000
1000
0
0
0
0
0
1000
1000
1000
1000
1000
1000
1000
1000
1000
1000
1000
1000
1000
1000
1000
1000
1000
1000
1000
1000
1000
1000
1000
1000
1000
1000
1000
1000
1000
1000
1000
1000
1000
1000
1000
1000
1000
1000
1000
1000
1000
1000
1000
1000
1000
1000
1000
1000
1000
1000
1000
1000
1000
1000
1000
1000
1000
1000
1000
1000
1000
1000
1000
1000
1000
1000
1000
1000
1000
1000
0
1000
0
1000
1000
1000
1000
1000
0
0
0
0
1000
0
1000
0
1000
0
0
0
0
0
0
0
0
0
0
0
1000
1000
1000
1000
0
0
0
0
0
0
0
0
1000
1000
1000
1000
1000
1000
1000
1000
1000
1000
1000
1000
1000
1000
1000
1000
1000
1000
1000
1000
1000
1000
1000
1000
1000
1000
1000
1000
1000
1000
0
1000
0
1000
0
1000
0
1000
1000
1000
1000
1000
1000
0
0
1000
0
1000
0
1000
0
1000
0
1000
0
1000
0
0
0
0
0
0
0
0
1000
1000
1000
1000
1000
1000
1000
0
0
0
0
0
0
0
0
1000
1000
1000
1000
1000
1000
1000
1000
1000
1000
1000
1000
1000
1000
1000
1000
1000
1000
1000
1000
1000
1000
1000
1000
1000
1000
0
0
0
1000
1000
1000
0
0
0
1000
1000
1000
1000
1000
1000
1000
1000
1000
1000
1000
1000
1000
1000
1000
0
0
0
0
0
0
1000
1000
1000
0
0
1000
1000
1000
0
0
0
1000
1000
1000
0
0
0
0
0
0
0
0
0
0
0
0
0
0
0
0
1000
1000
1000
1000
1000
1000
0
0
0
0
0
0
0
0
0
0
0
0
1000
1000
1000
0
0
0
0
0
0
0
0
0
0
0
0
0
1000
1000
1000
1000
1000
1000
0
0
0
0
0
0
0
0
0
0
0
0
1000
1000
1000
1000
1000
0
0
0
0
0
0
0
0
1000
0
0
0
1000
0
0
0
1000
0
0
0
1000
0
0
0
1000
0
0
0
1000
0
0
0
1000
0
0
0
1000
0
0
0
1000
0
0
0
1000
0
0
0
1000
1000
1000
1000
1000
0
0
0
0
0
0
0
0
0
0
0
0
1000
1000
1000
1000
0
0
0
0
0
0
0
0
1000
1000
1000
1000
1000
1000
1000
1000
1000
1000
1000
1000
1000
1000
1000
1000
1000
1000
1000
1000
1000
1000
1000
1000
1000
1000
1000
1000
1000
1000
0
0
0
0
0
0
0
0
0
0
0
0
0
0
0
0
1000
1000
1000
1000
1000
1000
1000
1000
1000
1000
1000
1000
1000
1000
0
0
0
0
0
0
0
0
0
0
0
0
0
0
0
0
1000
1000
1000
1000
1000
1000
0
0
0
0
1000
1000
1000
1000
1000
1000
0
0
0
0
0
0
0
0
0
0
0
0
0
0
0
0
0
0
0
0
0
0
0
0
0
0
0
0
0
0
0
0
0
0
0
0
0
0
0
0
0
0
0
0
0
0
0
0
0
0
0
0
1000
1000
1000
1000
1000
1000
1000
1000
1000
1000
1000
1000
0
0
0
0
0
0
0
0
0
0
0
0
0
0
0
0
0
0
0
0
0
0
0
0
1000
1000
1000
1000
1000
1000
1000
1000
1000
1000
1000
1000
0
0
1000
1000
1000
1000
1000
1000
1000
1000
1000
1000
1000
1000
1000
1000
1000
1000
1000
1000
1000
1000
1000
1000
1000
1000
1000
1000
1000
1000
1000
1000
1000
1000
1000
1000
1000
1000
0
0
0
0
0
0
0
0
0
0
0
0
0
0
0
0
0
0
0
1000
1000
1000
1000
1000
1000
1000
1000
0
0
0
0
0
0
0
0
0
0
0
0
0
0
0
0
1000
1000
1000
1000
1000
1000
1000
1000
1000
1000
1000
1000
1000
1000
1000
1000
1000
1000
1000
1000
1000
1000
1000
1000
1000
1000
1000
1000
1000
1000
1000
1000
1000
1000
1000
1000
1000
1000
1000
1000
1000
1000
1000
1000
1000
1000
1000
1000
1000
1000
1000
1000
1000
1000
1000
1000
1000
1000
1000
1000
1000
1000
1000
1000
1000
1000
1000
1000
1000
1000
1000
1000
1000
1000
1000
1000
1000
1000
1000
1000
1000
1000
1000
1000
1000
1000
1000
1000
0
0
0
0
0
0
0
0
1000
0
0
1000
0
0
1000
0
0
1000
0
0
1000
0
0
1000
0
0
1000
0
0
1000
0
0
1000
0
0
1000
0
1000
0
1000
1000
1000
1000
1000
1000
1000
1000
0
1000
1000
0
1000
1000
0
1000
1000
0
1000
1000
0
1000
1000
0
1000
1000
1000
1000
1000
1000
0
1000
1000
0
1000
1000
0
1000
1000
0
1000
1000
1000
1000
1000
1000
1000
1000
1000
1000
1000
1000
0
0
0
0
0
0
0
0
1000
1000
1000
1000
1000
1000
1000
0
0
0
0
0
0
0
0
1000
1000
1000
0
0
1000
1000
1000
1000
1000
1000
1000
0
0
0
0
0
0
0
0
0
0
0
0
0
1000
1000
1000
1000
0
0
0
1000
1000
0
0
0
1000
1000
0
0
0
1000
1000
0
0
0
1000
1000
0
0
0
1000
1000
1000
1000
1000
1000
1000
1000
1000
0
0
0
1000
1000
0
0
0
1000
1000
0
0
0
1000
1000
0
0
0
1000
1000
1000
1000
1000
1000
1000
1000
1000
1000
1000
1000
1000
1000
1000
1000
1000
1000
1000
1000
1000
1000
1000
1000
1000
1000
1000
1000
1000
1000
1000
1000
1000
1000
1000
1000
1000
1000
1000
1000
1000
1000
1000
1000
1000
1000
1000
1000
1000
1000
0
1000
1000
1000
1000
1000
1000
1000
1000
1000
1000
1000
1000
1000
1000
1000
1000
1000
1000
0
0
0
0
0
0
0
0
0
0
1000
1000
1000
1000
0
0
0
0
0
0
0
0
)


1070
(
0
0
1000
1000
1000
0
0
1000
1.194296
0.10173228
0.00060065896
0
0
0
0
0
1000
1000
1000
1000
1000
1000
1000
1000
1000
1000
1000
1000
1000
1000
1000
1000
1000
1000
1000
1000
1000
1000
1000
1000
1000
1000
1000
1000
1000
1000
1000
1000
1000
1000
1000
1000
1000
1000
1000
1000
1000
1000
1000
1000
1000
1000
1000
1000
1000
1000
1000
1000
1000
1000
1000
1000
1000
1000
1000
1000
1000
1000
1000
1000
1000
1000
1000
1000
1000
1000
0
1000
0
1000
1000
1000
1000
1000
0
0
0
0
1000
0
1000
0
1000
0
0
0
0
0
0
0
0
0
0
0
1000
1000
1000
1000
0
0
0
0
0
0
0
0
1000
1000
1000
1000
1000
1000
1000
1000
1000
1000
1000
1000
1000
1000
1000
1000
1000
1000
1000
1000
1000
1000
1000
1000
1000
1000
1000
1000
1000
1000
0
1000
0
1000
0
1000
0
1000
1000
1000
1000
1000
1000
0
0
1000
0
1000
0
1000
0
1000
0
1000
0
1000
0
0
0
0
0
0
0
0
1000
1000
1000
1000
1000
1000
1000
0
0
0
0
0
0
0
0
1000
1000
1000
1000
1000
1000
1000
1000
1000
1000
1000
1000
1000
1000
1000
1000
1000
1000
1000
1000
1000
1000
1000
1000
1000
1000
0
0
0
1000
1000
1000
0
0
0
1000
1000
1000
1000
1000
1000
1000
1000
1000
1000
1000
1000
1000
1000
1000
0
0
0
0
0
0
1000
1000
1000
0
0
1000
1000
1000
0
0
0
1000
1000
1000
0
0
0
0
0
0
0
0
0
0
0
0
0
0
0
0
1000
1000
1000
1000
1000
1000
0
0
0
0
0
0
0
0
0
0
0
0
1000
1000
1000
0
0
0
0
0
0
0
0
0
0
0
0
0
1000
1000
1000
1000
1000
1000
0
0
0
0
0
0
0
0
0
0
0
0
1000
1000
1000
1000
1000
0
0
0
0
0
0
0
0
1000
0
0
0
1000
0
0
0
1000
0
0
0
1000
0
0
0
1000
0
0
0
1000
0
0
0
1000
0
0
0
1000
0
0
0
1000
0
0
0
1000
0
0
0
1000
1000
1000
1000
1000
0
0
0
0
0
0
0
0
0
0
0
0
1000
1000
1000
1000
0
0
0
0
0
0
0
0
1000
1000
1000
1000
1000
1000
1000
1000
1000
1000
1000
1000
1000
1000
1000
1000
1000
1000
1000
1000
1000
1000
1000
1000
1000
1000
1000
1000
1000
1000
0
0
0
0
0
0
0
0
0
0
0
0
0
0
0
0
1000
1000
1000
1000
1000
1000
1000
1000
1000
1000
1000
1000
1000
1000
0
0
0
0
0
0
0
0
0
0
0
0
0
0
0
0
1000
1000
1000
1000
1000
1000
0
0
0
0
1000
1000
1000
1000
1000
1000
0
0
0
0
0
0
0
0
0
0
0
0
0
0
0
0
0
0
0
0
0
0
0
0
0
0
0
0
0
0
0
0
0
0
0
0
0
0
0
0
0
0
0
0
0
0
0
0
0
0
0
0
1000
1000
1000
1000
1000
1000
1000
1000
1000
1000
1000
1000
0
0
0
0
0
0
0
0
0
0
0
0
0
0
0
0
0
0
0
0
0
0
0
0
1000
1000
1000
1000
1000
1000
1000
1000
1000
1000
1000
1000
0
0
1000
1000
1000
1000
1000
1000
1000
1000
1000
1000
1000
1000
1000
1000
1000
1000
1000
1000
1000
1000
1000
1000
1000
1000
1000
1000
1000
1000
1000
1000
1000
1000
1000
1000
1000
1000
0
0
0
0
0
0
0
0
0
0
0
0
0
0
0
0
0
0
0
1000
1000
1000
1000
1000
1000
1000
1000
0
0
0
0
0
0
0
0
0
0
0
0
0
0
0
0
1000
1000
1000
1000
1000
1000
1000
1000
1000
1000
1000
1000
1000
1000
1000
1000
1000
1000
1000
1000
1000
1000
1000
1000
1000
1000
1000
1000
1000
1000
1000
1000
1000
1000
1000
1000
1000
1000
1000
1000
1000
1000
1000
1000
1000
1000
1000
1000
1000
1000
1000
1000
1000
1000
1000
1000
1000
1000
1000
1000
1000
1000
1000
1000
1000
1000
1000
1000
1000
1000
1000
1000
1000
1000
1000
1000
1000
1000
1000
1000
1000
1000
1000
1000
1000
1000
1000
1000
0
0
0
0
0
0
0
0
1000
0
0
1000
0
0
1000
0
0
1000
0
0
1000
0
0
1000
0
0
1000
0
0
1000
0
0
1000
0
0
1000
0
1000
0
1000
1000
1000
1000
1000
1000
1000
1000
0
1000
1000
0
1000
1000
0
1000
1000
0
1000
1000
0
1000
1000
0
1000
1000
1000
1000
1000
1000
0
1000
1000
0
1000
1000
0
1000
1000
0
1000
1000
1000
1000
1000
1000
1000
1000
1000
1000
1000
1000
0
0
0
0
0
0
0
0
1000
1000
1000
1000
1000
1000
1000
0
0
0
0
0
0
0
0
1000
1000
1000
0
0
1000
1000
1000
1000
1000
1000
1000
0
0
0
0
0
0
0
0
0
0
0
0
0
1000
1000
1000
1000
0
0
0
1000
1000
0
0
0
1000
1000
0
0
0
1000
1000
0
0
0
1000
1000
0
0
0
1000
1000
1000
1000
1000
1000
1000
1000
1000
0
0
0
1000
1000
0
0
0
1000
1000
0
0
0
1000
1000
0
0
0
1000
1000
1000
1000
1000
1000
1000
1000
1000
1000
1000
1000
1000
1000
1000
1000
1000
1000
1000
1000
1000
1000
1000
1000
1000
1000
1000
1000
1000
1000
1000
1000
1000
1000
1000
1000
1000
1000
1000
1000
1000
1000
1000
1000
1000
1000
1000
1000
1000
1000
0
1000
1000
1000
1000
1000
1000
1000
1000
1000
1000
1000
1000
1000
1000
1000
1000
1000
1000
0
0
0
0
0
0
0
0
0
0
1000
1000
1000
1000
0
0
0
0
0
0
0
0
)


1070
(
0
0
0.0023343746
0.33047934
0.37510536
0
0
0.10330776
0.25325122
0.15085803
0
0
0
0
0
0
0.33330815
0.10753845
0.39882135
0.68065433
0.68135786
0.18605408
0.15452625
0.59691686
0.6634669
0.68070381
0.17571035
0.26806364
0.039003107
0.10482889
0.2111602
0.46459429
0.63827881
0.67995565
0.70580395
0.68205454
0.16316652
0.21904879
0.076058868
0.062151199
0.02136024
0.12586371
0.04625214
0.031466454
0.19861897
0.5306248
0.37072858
0.34655649
0.61416008
0.67926446
0.43723386
0.41304801
0.68182997
0.68270278
0.70877545
0.71162344
0.14115613
0.025044596
0.24743767
0.57101129
0.70806687
0.12852674
0.10771527
0.094778981
0.022353535
0.02697618
0.025304094
0.23489543
0.30448774
0.28030494
0.54683773
0.503992
0.47982093
0.7108343
0.70859797
0.71139491
1000
1000
0
0.010678242
1000
1000
1000
1000
1000
0
0
0
0
0.074887564
0
0.17454881
0.022305946
0.25115175
0
0
0
0
0
0
0
0
0
0
0
0
0
0
0
0
0
0
0
0
0
0
0
0
0
0
0
0
0
0
0
0
1000
1000
1000
1000
1000
1000
1000
1000
1000
1000
1000
1000
0.1286493
0.029472618
0.013737097
0.024758252
1000
1000
1000
1000
1000
1000
1000
1000
1000
1000
1000
1000
1000
0
0
0
0
0
0
0
0
0.16415855
0.28101247
0.54854832
0.34750873
0.6160918
0.71944611
0
0
0
0
0
0
0
0
0
0
0
0
0
0
0
0
0
0
0
0
0
1000
1000
1000
0.030077343
0
0
0
0
0
0
0
0
0
0
0
1000
1000
1000
1000
1000
1000
1000
1000
1000
1000
1000
0
0.0050285728
0.017769949
0
0.07794534
0.022558636
1000
1000
1000
1000
1000
1000
0
0
0
0
0
0
0
0
0
0
0
0
0.23611036
0.019004925
0.028214847
0
0
0.014371096
0.096709855
0.45535407
0.26366815
0.032735711
0.11405764
0.22506172
0.33009016
0.52175143
0.7225561
0
0
0
0
0
0
0
0
0
0
0
0
0
0
0
0
0
0
0
0
0
0
0
0
0
0
0
0
0
0
0
0
0
0
0
0
0
0
0
0
0
0
0
0
0
0
0
0
0
0
0
0
0
0
1000
1000
1000
0
0
0
0
0
0
0
0
0
0
0
0
0
0
0
0
0
0
0
0
0
0
0
0
0
0
0
0
0
0
0
1000
1000
1000
1000
1000
0
0
0
0
0
0
0
0
0
0
0
0
0
0
0
0
0
0
0
0
0
0
0
0
0
0
0
0
0
0
0
0
0
0
0
0
0
0
0
0
0
0
0
0
0
0
0
0
1000
0
0
0
0
0
0
0
0
0
0
0
0
0
0
0
0
0
0
0
0
0
0
0
0
0
0
0
0
0.093896658
0.059977044
0.016584486
0.020343323
0
0
0
0
0
0
0
0
0.20040493
0.23744805
0.48127609
0.41425426
0.68401323
0.71899759
0
0
0
0
0
0
0
0
0
0
0
0
0
0
0
0
0
0
0
0
0
0
0
0
0
0
0
0
1000
1000
1000
1000
1000
1000
0.019050099
0.0058859516
0
0
0.0079246761
0
0
0
0
0
0
0
0
0
0
0
0
0
0
0
0
0
0
0
0
0
0
0.0088369431
0.013120857
0.0090130587
0
0
0
0
0
0
0
0
0
0
0
0
0
0
0
0
0
0
0
0
0
0
0
0
0
0
0
0
0
0
0
0
0
0
0
0
0
0
0
0
0
0
0
0
0
0
0
0
0
0
0
0
0
0
0
0
0
0
0
0
0
0
0
0
0
0
0
0
0
0
0
0
0
0
0
0
0
0
0
0
0
0
0
0
0
0
0
0
0
0
0
0
0
0
0
0
0
0
0
0.0038067041
0.041690903
0.030776751
0.027487358
0.013820852
0
0
0
0
0
0
0
0
0.1430748
0.1976271
0.046084971
0.022427099
0
0
0
0.0090561276
0.38828899
0.35296413
0.32131084
0.2061918
0.15028799
0.057252231
0.18726592
0.16900535
0.46812501
0.28097644
0.586746
0.41367944
0.60020689
0.65263341
0
0
0
0
0
0
0
0
0
0
0
0
0
0
0
0
0
0
0
0
0
0
0
0
0
0
0
0
0
0
0
0
0
0
0
0
0
0
0
0
0
0
0
0
0
0
0
0
0
0
0
0
0
0
0
0
0
1000
1000
1000
1000
1000
1000
1000
1000
1000
1000
1000
1000
1000
1000
1000
1000
1000
1000
1000
1000
1000
1000
1000
1000
1000
1000
1000
1000
1000
1000
1000
1000
1000
1000
1000
1000
1000
1000
1000
1000
1000
1000
1000
1000
1000
1000
1000
1000
1000
1000
1000
1000
1000
1000
1000
1000
1000
1000
1000
1000
1000
1000
1000
1000
1000
1000
1000
1000
1000
1000
1000
1000
1000
1000
1000
1000
1000
1000
1000
1000
1000
1000
1000
1000
1000
1000
1000
1000
0
0
0
0
0
0
0
0
0
0
0
0
0
0
0
0
0
0
0
0
0
0
0
0
0
0
0
0
0
0
0
0
0
0
0
0
0
1000
0
1000
1000
0
1000
1000
0
1000
1000
0
1000
1000
0
1000
1000
0
1000
1000
0
1000
1000
0
1000
1000
0
0
1000
1000
0
1000
1000
0
1000
1000
0
1000
1000
0
1000
1000
0
0
1000
1000
0
0
0
0
0
0
0
0
0
0
0
0
0
0
0
0
0
1000
1000
1000
0
0
0
0
0
0
0
0
0
0
0
0
0
0
0.0042410886
0
0
1000
1000
0
0
0
1000
1000
0
0
0
0
0
0
0
0
0
0
0
0
0
1000
1000
1000
1000
0
0
0
1000
1000
0
0
0
1000
1000
0
0
0
1000
1000
0
0
0
1000
1000
0
0
0
0
0
0
1000
0
0
0
1000
1000
0
0
0
1000
1000
0
0
0
1000
1000
0
0
0
1000
1000
0
0
0
1000
1000
1000
1000
1000
1000
1000
1000
1000
1000
1000
1000
1000
1000
1000
1000
1000
1000
1000
1000
1000
1000
1000
1000
1000
1000
1000
1000
1000
1000
1000
1000
1000
1000
1000
1000
1000
1000
1000
1000
1000
1000
1000
1000
0.0082471852
0.024320414
0.01845539
0
0
0
0
0.10289803
0.036154914
0
0
0.2854709
0.2468849
0.094411714
0.12998313
0.39602901
0.46631853
0.51826501
0
0
0
0
0
0
0
0
0
0
0
0
0
0
0
0
0
0
0
0
0
0
0
0
0
0
0
0
0
)

)


// ************************************************************************* //
