/*--------------------------------*- C++ -*----------------------------------*\
  =========                 |
  \\      /  F ield         | OpenFOAM: The Open Source CFD Toolbox
   \\    /   O peration     | Website:  https://openfoam.org
    \\  /    A nd           | Version:  8
     \\/     M anipulation  |
\*---------------------------------------------------------------------------*/
/*   Windows 32 and 64 bit porting by blueCAPE: http://www.bluecape.com.pt   *\
|  Based on Windows porting (2.0.x v4) by Symscape: http://www.symscape.com   |
\*---------------------------------------------------------------------------*/
FoamFile
{
    version     2.0;
    format      ascii;
    class       scalarListList;
    location    "constant/air";
    object      divqrsw;
}
// * * * * * * * * * * * * * * * * * * * * * * * * * * * * * * * * * * * * * //


5
(

2269
(
0
0
0
0
0
0
0
0
0
0
0
0
0
0
0
0
0
0
0
0
0
0
0
0
0
0
0
0
0
0
0
0
0
0
0
0
0
0
0
0
0
0
0
0
0
0
0
0
0
0
-138.7793
-178.02974
0
0
0
-145.12646
-174.57442
0
0
0
0
0
0
0
0
0
0
0
0
0
0
0
0
0
0
0
0
0
0
0
0
0
0
0
0
0
0
-123.52374
-183.74024
0
0
0
0
-123.89714
-181.5373
0
0
0
0
0
0
0
0
0
0
0
0
0
0
0
0
0
0
0
0
0
0
0
0
0
0
0
0
0
0
0
0
0
0
0
0
0
0
0
0
0
0
0
0
0
0
0
0
0
0
0
0
0
0
0
0
0
0
0
0
0
0
0
0
0
0
0
0
0
0
0
0
0
0
0
0
0
0
0
0
0
0
0
0
0
0
0
0
0
0
0
0
0
0
0
0
0
0
0
0
0
0
0
0
0
0
0
0
0
0
0
0
0
0
0
0
0
0
0
0
0
0
0
0
0
0
0
0
0
0
0
0
0
0
0
0
0
0
0
0
0
0
0
0
0
0
0
0
0
0
0
0
0
0
0
0
0
0
0
0
0
0
0
0
0
0
0
0
0
0
0
0
0
0
0
0
0
0
0
0
0
0
0
0
0
0
0
0
0
0
0
0
0
0
0
0
0
0
0
0
0
0
0
0
0
0
0
0
0
0
0
0
0
0
0
0
0
0
0
0
0
0
0
0
0
0
0
0
0
0
0
0
0
0
0
0
0
0
0
0
0
0
0
0
0
0
0
0
0
0
0
0
0
0
0
0
0
0
0
0
0
0
0
0
0
0
0
0
0
0
0
0
0
0
0
0
0
0
0
0
0
0
0
0
0
0
0
0
0
0
0
0
0
0
0
0
0
0
0
0
0
0
0
0
0
0
0
0
0
0
0
0
0
0
0
0
0
0
0
0
0
0
0
0
0
0
0
0
0
0
0
0
0
0
0
0
0
0
0
0
-46.558645
0
0
0
0
0
-107.34357
0
-57.018572
0
-108.84267
0
-102.20609
0
0
-62.110757
0
0
0
0
0
0
0
0
-51.937621
0
0
0
0
0
0
0
-126.81896
0
0
0
-111.24518
0
-56.724551
0
0
-96.816342
0
-131.68012
-108.78697
-175.27601
-67.223681
-138.15559
-110.45279
0
-117.17503
-181.70265
0
-73.745197
0
0
0
0
0
0
0
0
0
0
0
0
-131.61542
0
-118.44869
0
-90.517486
0
0
-64.157388
0
0
0
0
0
0
0
0
0
0
0
0
0
0
0
0
0
0
0
0
0
0
0
0
0
0
0
0
0
0
0
0
0
0
0
0
0
0
0
0
0
0
0
0
0
0
0
0
0
0
0
0
0
0
0
0
0
0
0
0
0
0
0
0
0
0
0
0
0
0
0
0
0
0
0
0
0
0
0
0
0
0
0
0
0
0
0
0
0
0
0
0
0
0
0
0
0
0
0
0
0
0
0
0
0
0
0
0
0
0
0
0
-155.25548
-206.77236
0
0
0
0
0
-144.3027
0
0
0
-134.65122
0
-185.67406
-187.51669
-201.34931
-136.86011
0
-193.62462
-172.27749
-132.27792
0
-204.40353
0
0
0
0
0
0
0
0
0
0
0
-146.18919
0
0
0
0
0
-136.37321
-94.428812
0
-204.087
0
0
0
0
0
0
-190.29492
0
0
0
0
0
0
-132.28795
0
0
0
-187.77218
-134.43009
0
0
0
-115.39658
-188.60059
0
0
0
0
0
0
-193.1077
0
0
0
0
0
0
0
0
0
0
0
0
0
0
0
0
0
0
0
0
0
0
0
0
0
0
0
0
0
0
0
0
0
0
0
0
0
0
0
0
0
0
0
0
0
0
0
0
0
0
0
0
0
0
0
0
0
0
0
0
0
0
0
0
0
0
0
0
0
0
0
0
0
0
0
0
-152.68894
0
-108.9099
-139.45437
-124.71186
-109.17448
-106.26024
-161.58268
0
-150.91803
0
-133.64513
-118.65453
0
0
0
0
0
0
0
0
0
0
0
0
0
0
0
-147.66549
-153.86668
-148.10931
-131.07485
-144.54828
-128.88965
-148.67403
-159.43155
-162.17281
-179.05711
-159.40949
-172.95014
-140.40349
-178.63117
0
0
0
0
0
0
0
0
0
0
0
0
0
0
0
0
0
0
0
0
0
0
0
0
0
0
0
0
-120.58817
-137.51653
-94.814226
-147.00833
-93.900146
-146.82931
-137.66932
-204.10153
-185.53058
-187.4971
-191.02593
-180.05082
-198.61708
-207.92953
0
0
0
0
0
0
0
0
-92.879808
0
-147.34355
-104.4415
0
-138.81166
-133.63595
-184.36898
0
-187.12052
0
-126.52335
-204.93982
0
0
0
0
0
0
0
0
0
0
0
0
0
0
0
0
0
0
0
0
0
0
0
0
0
0
0
0
0
0
0
0
0
0
0
0
0
0
0
0
0
0
0
0
0
0
0
0
0
0
0
0
0
0
0
0
0
0
0
0
0
0
0
0
0
0
0
0
0
0
0
0
0
0
0
0
0
0
0
0
0
0
0
0
0
0
0
0
0
0
0
0
0
0
0
0
0
0
0
0
0
0
0
0
0
0
0
0
0
0
0
0
0
-46.043211
0
0
0
0
-30.397224
0
0
0
0
0
-44.256904
-34.435589
-38.691285
-33.257161
0
-34.545945
0
-134.41835
0
-87.152061
-69.918252
0
-100.28279
0
0
0
0
0
0
0
-71.793483
-110.83049
-91.246824
-86.844577
-75.505099
-86.318983
-88.112106
0
0
0
0
0
0
0
-59.642378
-55.474724
-46.273911
-68.858292
-45.128492
-60.504057
-67.9238
0
0
0
0
0
0
0
-93.530996
-134.41161
-99.016324
-89.693916
-80.966464
-111.5028
-108.85458
0
0
0
0
0
0
0
-92.1746
-126.06916
0
-88.060924
0
-72.564597
-108.04734
0
0
-85.302975
0
0
0
0
-78.474942
-50.866615
-72.622535
-75.046261
-64.182282
-62.456603
-89.727864
0
0
0
0
0
0
0
0
0
-33.571769
0
0
0
0
0
0
0
-69.371916
0
0
-51.847337
0
-38.414546
-43.26506
-61.473627
0
-46.185592
-49.093348
0
0
0
0
0
0
0
0
0
-108.29288
0
0
0
0
0
0
0
-40.186715
-52.447327
-34.667551
-59.535575
0
0
0
0
0
0
-75.179392
-67.456762
-106.32225
-94.762354
0
0
-87.417809
-78.003252
-36.592265
0
-36.734465
0
-28.596619
-46.624485
0
-48.352305
-51.62567
-69.021299
-46.453259
-39.727445
-61.458303
-57.909299
0
0
0
0
0
-61.244993
0
-130.29582
0
-125.81891
-130.02676
-121.83668
-122.04906
-143.37564
-98.592274
-145.80502
-135.51517
-109.7836
-78.16954
-109.45884
-83.789796
0
0
-106.8119
-112.12431
-99.998
-112.47583
-96.323173
-117.06641
-127.87473
-158.86477
-109.49173
-152.91781
-104.67681
-123.00213
-104.42298
-113.20965
-127.23346
-93.22047
-92.601111
-109.51018
-125.34119
-128.40385
-164.78468
-170.20755
-151.29869
-165.81709
-135.53211
-143.33461
-88.37769
-63.917767
-79.473993
-78.774176
-76.36302
-73.491362
-94.199405
-146.35983
-164.60257
-148.62316
-117.88694
-131.01228
-172.27689
-132.86466
-172.79806
-170.73196
-175.84475
0
-155.94521
-166.42041
-191.6735
-138.78067
-139.06086
-127.47982
-102.07169
-150.6305
-121.34658
-117.05025
-160.95656
-174.83336
-160.45739
-181.5119
-143.65498
-177.68945
-176.90526
-152.20448
-126.77952
0
-100.75631
-129.87269
-155.22114
-131.09603
0
0
0
0
0
0
0
0
0
0
0
0
0
0
0
0
0
0
0
0
0
0
-111.22069
0
0
0
0
0
-90.186981
-129.843
-103.52482
0
-84.54253
-115.6703
0
-55.475455
0
-42.81091
0
-48.629528
-51.669071
0
-71.952859
0
-99.439479
-83.528282
0
-62.830141
-96.784495
0
0
0
0
0
0
0
-73.626512
0
0
0
0
-106.35694
0
-73.665818
-78.141696
-53.434029
-75.134065
-61.212065
-65.803206
-90.047033
0
0
0
0
-62.701756
0
0
0
0
0
0
0
0
0
0
0
0
-82.884106
0
-86.882222
0
0
0
0
-121.76944
0
-125.8678
0
0
0
0
0
0
0
-89.064449
0
0
0
0
0
0
-112.61967
-109.39077
-130.72822
0
-183.94182
0
-145.96407
-152.04635
-112.40158
-154.20425
-166.74209
-194.91298
-148.42368
-164.3889
-111.94167
0
0
0
-145.19427
0
0
0
0
0
0
0
0
0
0
-116.80837
0
-141.54694
-121.82044
0
-147.51558
-118.55117
-125.61987
0
0
-104.99165
0
-111.0801
-122.77579
-158.847
-135.41327
-150.03812
-162.19579
-145.485
-172.53841
-152.14366
0
-132.62136
0
0
0
-119.80821
-115.36712
-174.24315
-168.13508
-172.92236
-185.26688
-160.87287
-166.34457
-192.41883
-180.66311
-162.89071
-193.70723
-221.20931
-183.18213
-168.93135
-207.70898
-164.19726
-160.3837
-184.99095
-204.52686
-165.08762
-188.61964
-160.6707
-196.90788
-187.9014
-179.33101
0
-160.43635
-215.65653
-155.93649
-199.63468
-183.26026
-188.73548
-185.98109
-198.97611
-197.30671
-174.63007
-197.81581
-189.34555
-144.36357
-211.25942
-207.62768
-169.81583
-188.39935
-192.43885
-161.86317
-137.06326
-177.92881
-158.18947
-187.2944
-193.97714
-177.61436
0
-104.08221
-103.62889
-134.52106
-137.7823
-150.36272
0
0
0
0
0
0
0
0
0
0
0
0
0
0
0
0
0
-142.81899
0
0
0
0
0
0
0
0
0
0
-107.79863
0
0
-120.38658
0
-122.6094
-106.9603
0
0
0
0
0
0
0
-89.198481
0
0
0
0
-105.27229
0
-124.24024
0
-107.18305
-175.01223
-144.84964
-153.01375
0
-95.265164
0
-92.636832
-144.39431
0
-140.57882
-97.763227
-71.483127
0
0
0
0
-108.58633
0
-148.79801
-164.50759
-194.63556
-187.47508
-163.77476
-180.58751
-149.21054
0
0
0
-70.539762
0
0
0
0
0
0
-111.2964
0
0
0
0
-136.82183
-156.23007
-143.44928
-105.29193
-101.84065
0
0
0
0
-96.281583
0
-122.29602
0
-106.61822
-133.62273
-104.16096
-161.53544
-98.134079
-152.11893
-119.03781
0
0
0
0
0
0
0
0
0
0
0
0
0
0
-112.13393
-149.75433
-185.75053
-139.1254
-161.80383
-110.01724
-132.33695
-130.81414
-157.48786
-114.5263
-163.34286
-121.15672
-181.17768
-127.00843
0
0
0
0
0
0
0
0
-94.158315
0
0
0
0
0
0
0
0
0
0
0
0
-138.61891
-157.89363
-159.36551
0
0
-193.41523
-110.09807
-138.053
-184.51563
-141.27213
-180.93269
-189.62866
-135.45222
-132.59401
0
0
0
-108.48389
0
0
0
0
0
0
0
0
0
0
0
0
-129.54918
0
0
-85.130637
0
0
-153.11843
-147.4201
-178.04924
-135.15672
0
-131.79453
0
0
0
0
0
0
0
0
0
0
0
0
0
0
0
0
0
0
0
0
0
0
0
0
0
0
0
0
0
0
0
0
0
0
0
0
0
0
0
0
0
0
0
0
0
0
0
0
0
0
0
0
0
0
0
0
0
0
0
0
0
0
0
0
0
0
0
0
0
0
0
0
0
0
0
0
0
0
0
0
0
0
0
0
0
0
0
0
0
0
0
0
0
0
0
0
0
0
0
0
0
0
0
0
0
0
0
0
0
0
0
0
0
0
0
0
0
0
0
0
0
0
0
0
0
0
0
0
0
0
0
0
0
-121.22372
-88.06791
-84.09695
-87.944982
-102.44785
-102.4999
-103.23652
-194.15159
-186.6138
-209.77952
-198.82469
-191.62842
-206.279
-191.44311
-138.01375
-135.48435
-133.46746
-95.922855
-117.91724
-116.20695
-155.91171
-189.45987
-158.58458
-155.25435
-164.17114
-175.00508
-175.83861
-182.16328
0
0
0
0
0
0
0
0
0
0
0
0
0
0
0
0
0
0
0
0
0
0
0
0
0
0
0
0
0
0
0
0
0
0
0
0
0
0
0
0
0
0
0
0
0
0
0
0
0
0
0
0
0
0
0
0
0
0
0
0
0
0
0
0
0
0
0
0
0
0
0
0
0
0
0
0
0
0
0
0
0
0
0
0
0
0
0
0
0
0
0
0
0
0
0
0
0
0
0
0
0
0
0
0
0
0
0
0
0
0
0
0
0
0
0
0
0
0
0
0
0
0
0
0
0
0
0
0
0
0
0
0
0
0
0
0
0
0
0
0
0
0
0
0
0
0
0
0
0
0
0
0
0
0
0
0
0
0
0
0
0
0
0
0
0
0
0
0
0
0
0
0
0
0
0
0
0
0
0
0
0
0
0
0
0
0
0
0
0
0
0
0
0
0
0
0
0
0
0
0
0
0
0
0
0
0
0
0
0
0
0
0
0
0
0
0
0
0
0
0
0
0
0
0
0
0
0
0
0
0
0
0
0
0
0
0
0
0
0
0
0
0
0
0
0
0
0
0
0
0
0
0
0
0
0
0
0
0
0
0
0
0
0
0
0
0
0
0
0
0
0
0
0
0
0
0
0
0
0
0
0
0
0
0
0
0
0
0
0
0
0
0
0
0
0
0
0
0
0
0
0
0
0
0
0
0
0
0
0
0
0
0
0
0
0
0
0
0
0
0
0
0
0
0
0
0
0
0
0
0
0
0
0
0
0
0
0
0
0
0
0
0
0
0
0
0
0
0
0
0
0
0
0
0
0
0
0
0
0
0
0
0
0
0
0
0
0
0
0
0
0
0
0
0
0
0
0
0
0
0
0
0
0
0
0
0
0
0
0
0
0
0
0
0
0
0
0
0
0
0
0
0
0
0
0
0
0
0
0
0
0
0
0
0
0
0
0
0
0
0
0
0
0
0
0
0
0
0
0
)


2269
(
0
0
0
0
0
0
0
0
0
0
0
0
0
0
0
0
0
0
0
0
0
0
0
0
0
0
0
0
0
0
0
0
0
0
0
0
0
0
0
0
0
0
0
0
0
0
0
0
0
0
-80.33867
-158.49737
0
0
0
-84.313426
-156.894
0
0
0
0
0
0
0
0
0
0
0
0
0
0
0
0
0
0
0
0
0
0
0
0
0
0
0
0
0
0
-74.874983
-167.14712
0
0
0
0
-74.121762
-160.4532
0
0
0
0
0
0
0
0
0
0
0
0
0
0
0
0
0
0
0
0
0
0
0
0
0
0
0
0
0
0
0
0
0
0
0
0
0
0
0
0
0
0
0
0
0
0
0
0
0
0
0
0
0
0
0
0
0
0
0
0
0
0
0
0
0
0
0
0
0
0
0
0
0
0
0
0
0
0
0
0
0
0
0
0
0
0
0
0
0
0
0
0
0
0
0
0
0
0
0
0
0
0
0
0
0
0
0
0
0
0
0
0
0
0
0
0
0
0
0
0
0
0
0
0
0
0
0
0
0
0
0
0
0
0
0
0
0
0
0
0
0
0
0
0
0
0
0
0
0
0
0
0
0
0
0
0
0
0
0
0
0
0
0
0
0
0
0
0
0
0
0
0
0
0
0
0
0
0
0
0
0
0
0
0
0
0
0
0
0
0
0
0
0
0
0
0
0
0
0
0
0
0
0
0
0
0
0
0
0
0
0
0
0
0
0
0
0
0
0
0
0
0
0
0
0
0
0
0
0
0
0
0
0
0
0
0
0
0
0
0
0
0
0
0
0
0
0
0
0
0
0
0
0
0
0
0
0
0
0
0
0
0
0
0
0
0
0
0
0
0
0
0
0
0
0
0
0
0
0
0
0
0
0
0
0
0
0
0
0
0
0
0
0
0
0
0
0
0
0
0
0
0
0
0
0
0
0
0
0
0
0
0
0
0
0
0
0
0
0
0
0
0
0
0
0
0
0
0
0
0
0
0
0
0
0
0
0
0
0
0
-48.922577
0
0
0
0
0
-94.917178
0
-57.579243
0
-111.67048
0
-126.9554
0
0
-70.079438
0
0
0
0
0
0
0
0
-58.914186
0
0
0
0
0
0
0
-106.79354
0
0
0
-93.13449
0
-57.651913
0
0
-45.294441
0
-112.94613
-97.321756
-155.02166
-66.673114
-136.35063
-113.32223
0
-139.46213
-162.98216
0
-79.714037
0
0
0
0
0
0
0
0
0
0
0
0
-113.78771
0
-115.19835
0
-114.79397
0
0
-69.45468
0
0
0
0
0
0
0
0
0
0
0
0
0
0
0
0
0
0
0
0
0
0
0
0
0
0
0
0
0
0
0
0
0
0
0
0
0
0
0
0
0
0
0
0
0
0
0
0
0
0
0
0
0
0
0
0
0
0
0
0
0
0
0
0
0
0
0
0
0
0
0
0
0
0
0
0
0
0
0
0
0
0
0
0
0
0
0
0
0
0
0
0
0
0
0
0
0
0
0
0
0
0
0
0
0
0
0
0
0
0
0
0
-138.87454
-159.69252
0
0
0
0
0
-121.08445
0
0
0
-110.92076
0
-157.59741
-152.33444
-165.6252
-131.35751
0
-167.41371
-151.3874
-110.57099
0
-177.53935
0
0
0
0
0
0
0
0
0
0
0
-128.58653
0
0
0
0
0
-132.55726
-79.428351
0
-180.89824
0
0
0
0
0
0
-146.01307
0
0
0
0
0
0
-110.94843
0
0
0
-162.73064
-129.46564
0
0
0
-93.169084
-171.4651
0
0
0
0
0
0
-161.94386
0
0
0
0
0
0
0
0
0
0
0
0
0
0
0
0
0
0
0
0
0
0
0
0
0
0
0
0
0
0
0
0
0
0
0
0
0
0
0
0
0
0
0
0
0
0
0
0
0
0
0
0
0
0
0
0
0
0
0
0
0
0
0
0
0
0
0
0
0
0
0
0
0
0
0
0
-72.612769
0
-58.539966
-84.12895
-68.119249
-66.703139
-107.1655
-167.93608
0
-148.57276
0
-141.35255
-120.02842
0
0
0
0
0
0
0
0
0
0
0
0
0
0
0
-90.763916
-77.832161
-86.753754
-84.988588
-88.216775
-74.045767
-98.742916
-156.0339
-162.66505
-154.87444
-155.71571
-155.60678
-144.54182
-167.90576
0
0
0
0
0
0
0
0
0
0
0
0
0
0
0
0
0
0
0
0
0
0
0
0
0
0
0
0
-80.071182
-122.16011
-60.307027
-101.36099
-64.273076
-109.54038
-113.0458
-188.49598
-175.87008
-169.51423
-174.59266
-165.25406
-181.01481
-191.54426
0
0
0
0
0
0
0
0
-80.979426
0
-99.775848
-73.837858
0
-113.81745
-116.87286
-174.53424
0
-171.86668
0
-119.84013
-184.65203
0
0
0
0
0
0
0
0
0
0
0
0
0
0
0
0
0
0
0
0
0
0
0
0
0
0
0
0
0
0
0
0
0
0
0
0
0
0
0
0
0
0
0
0
0
0
0
0
0
0
0
0
0
0
0
0
0
0
0
0
0
0
0
0
0
0
0
0
0
0
0
0
0
0
0
0
0
0
0
0
0
0
0
0
0
0
0
0
0
0
0
0
0
0
0
0
0
0
0
0
0
0
0
0
0
0
0
0
0
0
0
0
0
-30.655271
0
0
0
0
-32.750644
0
0
0
0
0
-39.542369
-38.594179
-41.087208
-30.911486
0
-31.471071
0
-56.572916
0
-45.34313
-38.09407
0
-52.343477
0
0
0
0
0
0
0
-58.139602
-82.130394
-80.984313
-78.731766
-70.814248
-66.969785
-65.589361
0
0
0
0
0
0
0
-49.741586
-47.405471
-47.158372
-67.68528
-38.881489
-59.934328
-56.915231
0
0
0
0
0
0
0
-96.245203
-137.21756
-98.742486
-94.692825
-84.583527
-117.64622
-109.00643
0
0
0
0
0
0
0
-95.343564
-134.23421
0
-103.03518
0
-84.644261
-118.91917
0
0
-81.687917
0
0
0
0
-84.456499
-59.335765
-80.980822
-84.613252
-72.130827
-73.688051
-97.663968
0
0
0
0
0
0
0
0
0
-43.169044
0
0
0
0
0
0
0
-86.960611
0
0
-69.184479
0
-47.209028
-51.000874
-71.409272
0
-55.065681
-59.348819
0
0
0
0
0
0
0
0
0
-92.57235
0
0
0
0
0
0
0
-33.592577
-36.374361
-27.200855
-43.306814
0
0
0
0
0
0
-57.284156
-55.590285
-80.531474
-83.744559
0
0
-70.027444
-69.628746
-32.26098
0
-37.685526
0
-26.419477
-44.597574
0
-44.510259
-46.77668
-67.051556
-47.989597
-37.206934
-54.789163
-56.368604
0
0
0
0
0
-55.239683
0
-87.182993
0
-81.959804
-94.125434
-105.97346
-101.56335
-105.50431
-50.497892
-61.494667
-68.230449
-68.548993
-44.885809
-59.248562
-53.109903
0
0
-66.61029
-82.544641
-83.583944
-95.744315
-71.199038
-96.295108
-99.590361
-134.62853
-96.455819
-123.11078
-84.19174
-108.66103
-84.944716
-85.750669
-112.10152
-84.903783
-71.787095
-99.864102
-99.328648
-106.44379
-139.12734
-146.27803
-131.44444
-135.11407
-120.4858
-116.49638
-74.459133
-55.60864
-77.176727
-74.991129
-64.011215
-64.765887
-86.76867
-140.89511
-147.75862
-156.30095
-115.88893
-124.29312
-159.14828
-136.44453
-162.31642
-145.96312
-136.66025
0
-137.42311
-147.05665
-168.47235
-137.63093
-145.85016
-134.33083
-115.61031
-146.6353
-128.3962
-121.64697
-151.37916
-158.38627
-148.76104
-157.56717
-135.96975
-161.52299
-161.66116
-144.12042
-116.92895
0
-102.96764
-126.36094
-139.7291
-125.77351
0
0
0
0
0
0
0
0
0
0
0
0
0
0
0
0
0
0
0
0
0
0
-100.04343
0
0
0
0
0
-93.794402
-140.28366
-104.01448
0
-88.066989
-123.98687
0
-60.192386
0
-48.866578
0
-54.986988
-57.261717
0
-83.996079
0
-115.81303
-99.659901
0
-80.124569
-104.80997
0
0
0
0
0
0
0
-74.956151
0
0
0
0
-105.1851
0
-77.357629
-79.775821
-58.924952
-82.87797
-68.272437
-68.412173
-93.494535
0
0
0
0
-71.737395
0
0
0
0
0
0
0
0
0
0
0
0
-79.738687
0
-82.652064
0
0
0
0
-102.43065
0
-102.66669
0
0
0
0
0
0
0
-87.703985
0
0
0
0
0
0
-82.076422
-116.55089
-135.90541
0
-165.34445
0
-152.86832
-127.53209
-124.35114
-143.92852
-144.95507
-166.48314
-149.75773
-147.88771
-112.84991
0
0
0
-133.51341
0
0
0
0
0
0
0
0
0
0
-82.643461
0
-139.58241
-112.39076
0
-116.8963
-125.93717
-118.89804
0
0
-100.29555
0
-108.10304
-110.08167
-131.68742
-102.06393
-125.45212
-130.92942
-112.73981
-143.12517
-119.80565
0
-138.22286
0
0
0
-120.1337
-128.80846
-152.43994
-139.6896
-145.90527
-166.31293
-129.85976
-148.37431
-165.61767
-173.28154
-147.19317
-161.81383
-173.09444
-167.49969
-158.84349
-180.0548
-149.67422
-155.07701
-152.90442
-166.79967
-157.92908
-162.12189
-139.01893
-171.03249
-158.44276
-139.70866
0
-141.16231
-182.89018
-126.30554
-191.38802
-164.52695
-167.30976
-172.93761
-178.53765
-183.07543
-164.07579
-172.51716
-157.19659
-127.8958
-176.78465
-180.36639
-142.50251
-162.93221
-169.72123
-142.59053
-115.91689
-157.4053
-140.56292
-162.01969
-175.30843
-149.97213
0
-91.166241
-87.700007
-115.65495
-111.72196
-133.12179
0
0
0
0
0
0
0
0
0
0
0
0
0
0
0
0
0
-128.73598
0
0
0
0
0
0
0
0
0
0
-86.419782
0
0
-109.96715
0
-107.01826
-87.993241
0
0
0
0
0
0
0
-69.252056
0
0
0
0
-84.474508
0
-100.44263
0
-96.071044
-173.20445
-128.38403
-136.65822
0
-83.599369
0
-76.905412
-136.44359
0
-130.18951
-89.150365
-58.410835
0
0
0
0
-97.280804
0
-127.22294
-161.45422
-188.64406
-170.75295
-154.44253
-169.01196
-132.87644
0
0
0
-76.512811
0
0
0
0
0
0
-90.395876
0
0
0
0
-133.5508
-123.90873
-110.94372
-97.798743
-99.712113
0
0
0
0
-95.613122
0
-109.68415
0
-86.215328
-100.86185
-88.807361
-129.55187
-77.047023
-118.11097
-94.902601
0
0
0
0
0
0
0
0
0
0
0
0
0
0
-94.783863
-145.19077
-151.56032
-116.80971
-136.5842
-100.20936
-106.8262
-124.80394
-154.28976
-106.53657
-152.09702
-118.1367
-174.63516
-113.63906
0
0
0
0
0
0
0
0
-78.041578
0
0
0
0
0
0
0
0
0
0
0
0
-117.3557
-133.9785
-141.06027
0
0
-173.28033
-92.358682
-132.49868
-172.12308
-129.60724
-167.75504
-193.71709
-121.79796
-120.95398
0
0
0
-102.20644
0
0
0
0
0
0
0
0
0
0
0
0
-118.29246
0
0
-78.308114
0
0
-152.62086
-121.37236
-147.73418
-120.97868
0
-103.3509
0
0
0
0
0
0
0
0
0
0
0
0
0
0
0
0
0
0
0
0
0
0
0
0
0
0
0
0
0
0
0
0
0
0
0
0
0
0
0
0
0
0
0
0
0
0
0
0
0
0
0
0
0
0
0
0
0
0
0
0
0
0
0
0
0
0
0
0
0
0
0
0
0
0
0
0
0
0
0
0
0
0
0
0
0
0
0
0
0
0
0
0
0
0
0
0
0
0
0
0
0
0
0
0
0
0
0
0
0
0
0
0
0
0
0
0
0
0
0
0
0
0
0
0
0
0
0
0
0
0
0
0
0
-121.13925
-91.075905
-88.085773
-94.600293
-106.91767
-102.50766
-106.58206
-182.01952
-175.06838
-178.2812
-177.75117
-176.05752
-178.42274
-188.75145
-135.88994
-136.57669
-129.13207
-99.79836
-121.2736
-116.1537
-149.60103
-185.68258
-154.81795
-145.86018
-153.59893
-165.50339
-164.15633
-177.18382
0
0
0
0
0
0
0
0
0
0
0
0
0
0
0
0
0
0
0
0
0
0
0
0
0
0
0
0
0
0
0
0
0
0
0
0
0
0
0
0
0
0
0
0
0
0
0
0
0
0
0
0
0
0
0
0
0
0
0
0
0
0
0
0
0
0
0
0
0
0
0
0
0
0
0
0
0
0
0
0
0
0
0
0
0
0
0
0
0
0
0
0
0
0
0
0
0
0
0
0
0
0
0
0
0
0
0
0
0
0
0
0
0
0
0
0
0
0
0
0
0
0
0
0
0
0
0
0
0
0
0
0
0
0
0
0
0
0
0
0
0
0
0
0
0
0
0
0
0
0
0
0
0
0
0
0
0
0
0
0
0
0
0
0
0
0
0
0
0
0
0
0
0
0
0
0
0
0
0
0
0
0
0
0
0
0
0
0
0
0
0
0
0
0
0
0
0
0
0
0
0
0
0
0
0
0
0
0
0
0
0
0
0
0
0
0
0
0
0
0
0
0
0
0
0
0
0
0
0
0
0
0
0
0
0
0
0
0
0
0
0
0
0
0
0
0
0
0
0
0
0
0
0
0
0
0
0
0
0
0
0
0
0
0
0
0
0
0
0
0
0
0
0
0
0
0
0
0
0
0
0
0
0
0
0
0
0
0
0
0
0
0
0
0
0
0
0
0
0
0
0
0
0
0
0
0
0
0
0
0
0
0
0
0
0
0
0
0
0
0
0
0
0
0
0
0
0
0
0
0
0
0
0
0
0
0
0
0
0
0
0
0
0
0
0
0
0
0
0
0
0
0
0
0
0
0
0
0
0
0
0
0
0
0
0
0
0
0
0
0
0
0
0
0
0
0
0
0
0
0
0
0
0
0
0
0
0
0
0
0
0
0
0
0
0
0
0
0
0
0
0
0
0
0
0
0
0
0
0
0
0
0
0
0
0
0
0
0
0
0
0
0
0
0
0
0
0
0
0
)


2269
(
0
0
0
0
0
0
0
0
0
0
0
0
0
0
0
0
0
0
0
0
0
0
0
0
0
0
0
0
0
0
0
0
0
0
0
0
0
0
0
0
0
0
0
0
0
0
0
0
0
0
-62.35867
-155.38548
0
0
0
-65.453879
-170.57203
0
0
0
0
0
0
0
0
0
0
0
0
0
0
0
0
0
0
0
0
0
0
0
0
0
0
0
0
0
0
-64.039451
-173.14793
0
0
0
0
-59.497562
-150.97492
0
0
0
0
0
0
0
0
0
0
0
0
0
0
0
0
0
0
0
0
0
0
0
0
0
0
0
0
0
0
0
0
0
0
0
0
0
0
0
0
0
0
0
0
0
0
0
0
0
0
0
0
0
0
0
0
0
0
0
0
0
0
0
0
0
0
0
0
0
0
0
0
0
0
0
0
0
0
0
0
0
0
0
0
0
0
0
0
0
0
0
0
0
0
0
0
0
0
0
0
0
0
0
0
0
0
0
0
0
0
0
0
0
0
0
0
0
0
0
0
0
0
0
0
0
0
0
0
0
0
0
0
0
0
0
0
0
0
0
0
0
0
0
0
0
0
0
0
0
0
0
0
0
0
0
0
0
0
0
0
0
0
0
0
0
0
0
0
0
0
0
0
0
0
0
0
0
0
0
0
0
0
0
0
0
0
0
0
0
0
0
0
0
0
0
0
0
0
0
0
0
0
0
0
0
0
0
0
0
0
0
0
0
0
0
0
0
0
0
0
0
0
0
0
0
0
0
0
0
0
0
0
0
0
0
0
0
0
0
0
0
0
0
0
0
0
0
0
0
0
0
0
0
0
0
0
0
0
0
0
0
0
0
0
0
0
0
0
0
0
0
0
0
0
0
0
0
0
0
0
0
0
0
0
0
0
0
0
0
0
0
0
0
0
0
0
0
0
0
0
0
0
0
0
0
0
0
0
0
0
0
0
0
0
0
0
0
0
0
0
0
0
0
0
0
0
0
0
0
0
0
0
0
0
0
0
0
0
0
0
-66.137028
0
0
0
0
0
-107.00664
0
-75.920883
0
-126.70317
0
-104.35725
0
0
-95.137398
0
0
0
0
0
0
0
0
-85.196623
0
0
0
0
0
0
0
-118.27892
0
0
0
-116.95086
0
-66.358646
0
0
-40.649861
0
-126.63868
-111.68654
-147.81181
-75.950682
-144.41451
-132.4014
0
-119.2074
-166.7259
0
-95.397561
0
0
0
0
0
0
0
0
0
0
0
0
-116.5518
0
-128.6631
0
-104.87281
0
0
-88.785093
0
0
0
0
0
0
0
0
0
0
0
0
0
0
0
0
0
0
0
0
0
0
0
0
0
0
0
0
0
0
0
0
0
0
0
0
0
0
0
0
0
0
0
0
0
0
0
0
0
0
0
0
0
0
0
0
0
0
0
0
0
0
0
0
0
0
0
0
0
0
0
0
0
0
0
0
0
0
0
0
0
0
0
0
0
0
0
0
0
0
0
0
0
0
0
0
0
0
0
0
0
0
0
0
0
0
0
0
0
0
0
0
-146.25113
-188.59585
0
0
0
0
0
-112.40445
0
0
0
-130.22047
0
-163.01418
-190.87768
-185.72872
-147.72327
0
-170.60202
-164.55089
-116.87934
0
-207.15649
0
0
0
0
0
0
0
0
0
0
0
-108.34477
0
0
0
0
0
-138.47033
-85.656291
0
-182.72367
0
0
0
0
0
0
-175.76466
0
0
0
0
0
0
-123.27907
0
0
0
-171.90337
-141.39102
0
0
0
-102.45002
-189.74867
0
0
0
0
0
0
-180.39691
0
0
0
0
0
0
0
0
0
0
0
0
0
0
0
0
0
0
0
0
0
0
0
0
0
0
0
0
0
0
0
0
0
0
0
0
0
0
0
0
0
0
0
0
0
0
0
0
0
0
0
0
0
0
0
0
0
0
0
0
0
0
0
0
0
0
0
0
0
0
0
0
0
0
0
0
-62.36212
0
-54.144483
-81.804913
-72.411219
-62.829097
-121.71368
-165.83071
0
-171.20202
0
-159.94612
-136.54264
0
0
0
0
0
0
0
0
0
0
0
0
0
0
0
-67.026526
-64.113443
-65.839843
-78.938291
-86.642372
-74.800026
-89.652361
-172.15965
-175.46004
-171.32936
-185.05197
-179.66939
-171.64651
-174.45145
0
0
0
0
0
0
0
0
0
0
0
0
0
0
0
0
0
0
0
0
0
0
0
0
0
0
0
0
-65.430556
-101.46604
-61.300762
-90.369514
-67.434454
-94.606527
-97.314616
-208.0705
-186.34304
-181.27312
-168.1185
-167.4218
-193.03397
-200.46388
0
0
0
0
0
0
0
0
-69.042491
0
-84.396588
-66.772923
0
-87.225612
-141.96564
-168.18126
0
-152.40815
0
-141.08349
-177.3768
0
0
0
0
0
0
0
0
0
0
0
0
0
0
0
0
0
0
0
0
0
0
0
0
0
0
0
0
0
0
0
0
0
0
0
0
0
0
0
0
0
0
0
0
0
0
0
0
0
0
0
0
0
0
0
0
0
0
0
0
0
0
0
0
0
0
0
0
0
0
0
0
0
0
0
0
0
0
0
0
0
0
0
0
0
0
0
0
0
0
0
0
0
0
0
0
0
0
0
0
0
0
0
0
0
0
0
0
0
0
0
0
0
-38.513961
0
0
0
0
-50.08639
0
0
0
0
0
-51.384297
-48.19438
-58.207682
-37.607341
0
-40.165628
0
-50.815578
0
-45.39025
-48.733315
0
-60.869285
0
0
0
0
0
0
0
-68.062863
-92.49269
-96.707243
-95.009612
-80.689387
-82.102052
-78.390828
0
0
0
0
0
0
0
-55.641841
-61.94768
-55.684896
-86.537935
-46.122473
-67.227345
-72.063287
0
0
0
0
0
0
0
-106.75184
-147.4915
-109.63506
-111.50461
-90.895129
-134.55283
-123.94218
0
0
0
0
0
0
0
-110.91179
-134.27146
0
-138.15019
0
-90.590162
-153.11361
0
0
-68.746343
0
0
0
0
-94.097769
-68.778335
-100.7978
-121.11042
-78.02138
-84.813626
-126.27922
0
0
0
0
0
0
0
0
0
-64.614598
0
0
0
0
0
0
0
-101.5792
0
0
-69.777587
0
-59.01601
-76.55922
-109.67292
0
-74.320636
-79.883891
0
0
0
0
0
0
0
0
0
-124.77354
0
0
0
0
0
0
0
-35.088557
-39.484838
-28.172857
-47.165462
0
0
0
0
0
0
-59.988993
-64.858636
-104.09556
-100.45873
0
0
-78.800472
-88.541322
-38.645501
0
-51.480284
0
-32.214335
-62.057112
0
-50.116089
-51.830188
-78.790635
-59.465596
-40.229128
-62.030012
-71.851397
0
0
0
0
0
-70.851061
0
-69.678379
0
-68.609636
-88.286104
-101.77921
-94.372944
-97.441557
-45.450079
-53.007788
-56.526066
-68.28555
-50.244065
-62.724803
-57.496476
0
0
-60.907511
-78.924548
-95.250136
-91.439857
-69.19151
-97.503385
-111.4461
-134.33846
-110.30885
-116.81549
-88.969909
-118.64247
-89.807094
-96.680347
-116.01083
-96.949443
-84.498989
-103.1073
-101.71967
-106.23345
-125.72968
-137.89202
-141.42916
-119.01699
-128.27352
-119.59744
-80.27198
-62.735249
-86.768268
-86.663896
-73.005024
-71.821636
-94.707863
-157.42613
-147.8844
-145.4145
-134.32669
-140.75095
-147.71866
-157.5187
-165.4547
-136.22919
-136.19633
0
-136.70254
-132.66167
-165.93053
-163.78904
-151.05106
-120.88702
-146.86261
-155.16163
-162.03333
-154.96263
-168.76453
-153.74876
-162.4676
-163.39023
-150.50794
-166.16126
-174.83342
-160.59655
-127.69809
0
-100.17253
-128.49992
-128.26912
-160.38721
0
0
0
0
0
0
0
0
0
0
0
0
0
0
0
0
0
0
0
0
0
0
-123.34106
0
0
0
0
0
-125.70956
-145.12676
-127.04395
0
-115.48737
-154.3074
0
-82.531881
0
-71.827285
0
-83.10666
-86.737606
0
-99.643157
0
-99.906091
-119.71373
0
-100.74792
-128.85319
0
0
0
0
0
0
0
-84.948563
0
0
0
0
-133.33533
0
-110.45435
-102.92439
-80.804294
-115.00321
-97.752296
-96.359344
-129.45559
0
0
0
0
-97.043015
0
0
0
0
0
0
0
0
0
0
0
0
-97.628279
0
-101.54574
0
0
0
0
-113.90088
0
-114.72746
0
0
0
0
0
0
0
-107.74599
0
0
0
0
0
0
-110.55661
-129.22171
-156.20612
0
-170.32752
0
-169.54046
-138.08368
-137.80151
-152.96605
-149.70898
-181.00978
-161.11901
-146.8922
-142.51171
0
0
0
-105.69242
0
0
0
0
0
0
0
0
0
0
-67.451156
0
-114.58858
-106.91784
0
-105.65848
-117.99753
-109.51412
0
0
-113.02098
0
-117.28298
-105.0131
-134.7375
-114.58454
-132.39093
-149.39909
-117.77988
-152.19681
-132.88681
0
-124.22496
0
0
0
-128.1142
-131.79772
-150.2323
-139.60707
-156.19832
-172.06814
-135.38986
-155.66455
-168.86793
-156.48044
-170.86851
-191.15052
-197.86071
-162.84549
-163.43862
-184.70189
-144.02563
-148.08654
-170.20187
-191.43989
-153.66733
-174.91362
-140.88209
-178.08607
-142.48112
-143.05788
0
-135.75181
-179.62888
-129.79156
-190.71097
-171.06632
-163.61632
-181.38336
-178.132
-181.92337
-176.84079
-187.1548
-195.31278
-126.60502
-188.83645
-198.26939
-156.30443
-165.62125
-180.92087
-146.97026
-121.69398
-158.04631
-149.54854
-157.69526
-184.63232
-157.67721
0
-84.092558
-103.29914
-124.76816
-107.0805
-140.8888
0
0
0
0
0
0
0
0
0
0
0
0
0
0
0
0
0
-104.41229
0
0
0
0
0
0
0
0
0
0
-74.053751
0
0
-106.77557
0
-102.93676
-81.766898
0
0
0
0
0
0
0
-64.045244
0
0
0
0
-96.100719
0
-111.03531
0
-101.70423
-166.93303
-137.4573
-146.23546
0
-84.898783
0
-83.298861
-134.83907
0
-132.70589
-91.227734
-73.825475
0
0
0
0
-115.63781
0
-123.09492
-146.12173
-177.40267
-158.37223
-144.28011
-156.89658
-128.24835
0
0
0
-89.382327
0
0
0
0
0
0
-109.05171
0
0
0
0
-138.13634
-147.022
-130.5912
-135.86561
-105.12643
0
0
0
0
-101.83681
0
-94.092623
0
-102.14063
-105.73432
-110.68595
-139.93857
-87.751823
-122.09518
-124.98955
0
0
0
0
0
0
0
0
0
0
0
0
0
0
-112.30681
-135.48627
-157.05881
-138.69335
-129.71454
-111.56291
-135.39056
-147.20986
-159.81398
-127.72361
-156.21025
-141.93624
-170.14106
-144.31585
0
0
0
0
0
0
0
0
-72.862157
0
0
0
0
0
0
0
0
0
0
0
0
-138.5518
-131.26957
-145.95055
0
0
-172.91995
-106.97786
-148.30666
-172.4377
-146.79396
-180.3029
-184.63033
-146.08713
-142.04904
0
0
0
-104.90569
0
0
0
0
0
0
0
0
0
0
0
0
-123.42711
0
0
-89.54315
0
0
-144.81085
-137.38971
-152.06033
-122.69597
0
-109.06445
0
0
0
0
0
0
0
0
0
0
0
0
0
0
0
0
0
0
0
0
0
0
0
0
0
0
0
0
0
0
0
0
0
0
0
0
0
0
0
0
0
0
0
0
0
0
0
0
0
0
0
0
0
0
0
0
0
0
0
0
0
0
0
0
0
0
0
0
0
0
0
0
0
0
0
0
0
0
0
0
0
0
0
0
0
0
0
0
0
0
0
0
0
0
0
0
0
0
0
0
0
0
0
0
0
0
0
0
0
0
0
0
0
0
0
0
0
0
0
0
0
0
0
0
0
0
0
0
0
0
0
0
0
-136.30347
-106.50457
-100.95613
-122.9099
-130.49149
-109.27438
-133.69317
-203.2682
-186.78554
-201.56028
-186.84643
-192.68859
-181.17647
-203.21533
-141.75703
-155.05722
-133.44711
-116.09203
-140.39572
-121.26831
-153.13073
-190.58305
-169.59218
-148.92084
-166.06935
-171.74731
-170.2405
-184.99623
0
0
0
0
0
0
0
0
0
0
0
0
0
0
0
0
0
0
0
0
0
0
0
0
0
0
0
0
0
0
0
0
0
0
0
0
0
0
0
0
0
0
0
0
0
0
0
0
0
0
0
0
0
0
0
0
0
0
0
0
0
0
0
0
0
0
0
0
0
0
0
0
0
0
0
0
0
0
0
0
0
0
0
0
0
0
0
0
0
0
0
0
0
0
0
0
0
0
0
0
0
0
0
0
0
0
0
0
0
0
0
0
0
0
0
0
0
0
0
0
0
0
0
0
0
0
0
0
0
0
0
0
0
0
0
0
0
0
0
0
0
0
0
0
0
0
0
0
0
0
0
0
0
0
0
0
0
0
0
0
0
0
0
0
0
0
0
0
0
0
0
0
0
0
0
0
0
0
0
0
0
0
0
0
0
0
0
0
0
0
0
0
0
0
0
0
0
0
0
0
0
0
0
0
0
0
0
0
0
0
0
0
0
0
0
0
0
0
0
0
0
0
0
0
0
0
0
0
0
0
0
0
0
0
0
0
0
0
0
0
0
0
0
0
0
0
0
0
0
0
0
0
0
0
0
0
0
0
0
0
0
0
0
0
0
0
0
0
0
0
0
0
0
0
0
0
0
0
0
0
0
0
0
0
0
0
0
0
0
0
0
0
0
0
0
0
0
0
0
0
0
0
0
0
0
0
0
0
0
0
0
0
0
0
0
0
0
0
0
0
0
0
0
0
0
0
0
0
0
0
0
0
0
0
0
0
0
0
0
0
0
0
0
0
0
0
0
0
0
0
0
0
0
0
0
0
0
0
0
0
0
0
0
0
0
0
0
0
0
0
0
0
0
0
0
0
0
0
0
0
0
0
0
0
0
0
0
0
0
0
0
0
0
0
0
0
0
0
0
0
0
0
0
0
0
0
0
0
0
0
0
0
0
0
0
0
0
0
0
0
0
0
0
0
0
0
0
0
0
)


2269
(
0
0
0
0
0
0
0
0
0
0
0
0
0
0
0
0
0
0
0
0
0
0
0
0
0
0
0
0
0
0
0
0
0
0
0
0
0
0
0
0
0
0
0
0
0
0
0
0
0
0
-61.225079
-134.2494
0
0
0
-61.69664
-132.03006
0
0
0
0
0
0
0
0
0
0
0
0
0
0
0
0
0
0
0
0
0
0
0
0
0
0
0
0
0
0
-56.269657
-153.2326
0
0
0
0
-55.75081
-151.32265
0
0
0
0
0
0
0
0
0
0
0
0
0
0
0
0
0
0
0
0
0
0
0
0
0
0
0
0
0
0
0
0
0
0
0
0
0
0
0
0
0
0
0
0
0
0
0
0
0
0
0
0
0
0
0
0
0
0
0
0
0
0
0
0
0
0
0
0
0
0
0
0
0
0
0
0
0
0
0
0
0
0
0
0
0
0
0
0
0
0
0
0
0
0
0
0
0
0
0
0
0
0
0
0
0
0
0
0
0
0
0
0
0
0
0
0
0
0
0
0
0
0
0
0
0
0
0
0
0
0
0
0
0
0
0
0
0
0
0
0
0
0
0
0
0
0
0
0
0
0
0
0
0
0
0
0
0
0
0
0
0
0
0
0
0
0
0
0
0
0
0
0
0
0
0
0
0
0
0
0
0
0
0
0
0
0
0
0
0
0
0
0
0
0
0
0
0
0
0
0
0
0
0
0
0
0
0
0
0
0
0
0
0
0
0
0
0
0
0
0
0
0
0
0
0
0
0
0
0
0
0
0
0
0
0
0
0
0
0
0
0
0
0
0
0
0
0
0
0
0
0
0
0
0
0
0
0
0
0
0
0
0
0
0
0
0
0
0
0
0
0
0
0
0
0
0
0
0
0
0
0
0
0
0
0
0
0
0
0
0
0
0
0
0
0
0
0
0
0
0
0
0
0
0
0
0
0
0
0
0
0
0
0
0
0
0
0
0
0
0
0
0
0
0
0
0
0
0
0
0
0
0
0
0
0
0
0
0
0
0
-60.668576
0
0
0
0
0
-119.31793
0
-72.384363
0
-132.79103
0
-53.081006
0
0
-82.10057
0
0
0
0
0
0
0
0
-69.004991
0
0
0
0
0
0
0
-114.00586
0
0
0
-121.76395
0
-60.944753
0
0
-42.343765
0
-133.81199
-120.32056
-141.88243
-73.10181
-145.17085
-133.79733
0
-59.545654
-154.21229
0
-82.741558
0
0
0
0
0
0
0
0
0
0
0
0
-120.75763
0
-144.725
0
0
0
0
-68.668943
0
0
0
0
0
0
0
0
0
0
0
0
0
0
0
0
0
0
0
0
0
0
0
0
0
0
0
0
0
0
0
0
0
0
0
0
0
0
0
0
0
0
0
0
0
0
0
0
0
0
0
0
0
0
0
0
0
0
0
0
0
0
0
0
0
0
0
0
0
0
0
0
0
0
0
0
0
0
0
0
0
0
0
0
0
0
0
0
0
0
0
0
0
0
0
0
0
0
0
0
0
0
0
0
0
0
0
0
0
0
0
0
-140.10066
-186.32948
0
0
0
0
0
-121.28802
0
0
0
-133.14443
0
-149.4716
-160.65936
-172.07556
-156.60872
0
-158.58183
-139.99136
-87.128543
0
-186.65451
0
0
0
0
0
0
0
0
0
0
0
-125.17196
0
0
0
0
0
-117.16665
-47.580147
0
-171.98655
0
0
0
0
0
0
-177.33319
0
0
0
0
0
0
-133.47011
0
0
0
-167.05804
-154.9945
0
0
0
-81.945328
-183.80642
0
0
0
0
0
0
-162.82794
0
0
0
0
0
0
0
0
0
0
0
0
0
0
0
0
0
0
0
0
0
0
0
0
0
0
0
0
0
0
0
0
0
0
0
0
0
0
0
0
0
0
0
0
0
0
0
0
0
0
0
0
0
0
0
0
0
0
0
0
0
0
0
0
0
0
0
0
0
0
0
0
0
0
0
0
-55.558319
0
-58.995116
-79.420135
-73.226222
-62.89733
-85.539073
-162.63259
0
-116.89678
0
-131.97554
-102.43606
0
0
0
0
0
0
0
0
0
0
0
0
0
0
0
-66.337813
-55.924916
-59.257682
-76.574812
-79.816191
-73.590341
-84.04865
-139.00765
-164.90687
-129.89749
-115.86879
-121.8286
-131.76782
-168.01555
0
0
0
0
0
0
0
0
0
0
0
0
0
0
0
0
0
0
0
0
0
0
0
0
0
0
0
0
-60.506555
-92.555771
-48.218105
-87.058814
-52.657603
-93.084194
-86.472055
-170.06594
-188.0636
-148.59847
-163.34908
-156.50635
-181.24512
-176.22205
0
0
0
0
0
0
0
0
-59.536347
0
-85.864124
-62.505691
0
-85.653885
-108.44008
-191.78523
0
-158.67059
0
-120.0927
-175.9389
0
0
0
0
0
0
0
0
0
0
0
0
0
0
0
0
0
0
0
0
0
0
0
0
0
0
0
0
0
0
0