/*--------------------------------*- C++ -*----------------------------------*\
  =========                 |
  \\      /  F ield         | OpenFOAM: The Open Source CFD Toolbox
   \\    /   O peration     | Website:  https://openfoam.org
    \\  /    A nd           | Version:  8
     \\/     M anipulation  |
\*---------------------------------------------------------------------------*/
/*   Windows 32 and 64 bit porting by blueCAPE: http://www.bluecape.com.pt   *\
|  Based on Windows porting (2.0.x v4) by Symscape: http://www.symscape.com   |
\*---------------------------------------------------------------------------*/
FoamFile
{
    version     2.0;
    format      ascii;
    class       scalarListList;
    location    "constant/air";
    object      divqrsw;
}
// * * * * * * * * * * * * * * * * * * * * * * * * * * * * * * * * * * * * * //


5
(

2290
(
0
0
0
0
0
0
0
0
0
0
0
0
0
0
0
0
0
0
0
0
0
0
0
0
0
0
0
0
0
-148.05104
0
-138.15773
0
0
0
0
0
0
0
0
0
0
0
0
0
0
0
0
0
0
0
0
0
0
0
0
0
0
0
0
0
0
0
0
0
0
0
0
0
-27.406196
0
0
0
0
-24.71289
0
0
-33.677234
0
0
0
0
-22.746095
0
0
0
-27.534897
0
0
0
0
-100.77763
0
0
0
0
0
0
0
0
0
-32.228844
0
0
0
0
-112.17731
0
0
0
0
0
0
0
0
0
0
0
0
0
0
0
0
0
0
0
0
0
0
0
0
0
0
0
-148.75229
0
0
0
0
0
0
0
0
0
-138.49165
0
0
0
0
0
0
0
0
-124.51294
-223.04242
0
-207.31657
-165.78709
0
-178.07138
0
0
0
-167.20327
0
0
0
0
0
0
0
0
0
0
0
0
0
0
0
0
0
0
0
0
0
0
0
0
0
0
0
0
0
0
0
0
0
0
0
0
0
0
0
-148.37076
0
0
-184.79192
0
0
-26.042055
0
0
0
0
0
0
0
0
0
0
0
-22.745265
0
0
0
0
0
0
0
0
0
0
0
0
0
0
0
-197.77684
-178.06866
-169.95006
0
-202.3088
0
0
0
0
0
0
0
0
0
0
0
0
0
0
0
0
0
0
0
-153.77229
-174.17178
-180.408
0
0
0
0
-92.765756
0
0
-115.4568
-157.90897
-129.31478
0
0
0
0
0
0
0
0
0
0
0
0
0
0
0
0
0
0
0
0
0
0
0
0
0
0
0
0
0
0
0
0
0
0
0
0
0
0
0
0
0
0
0
0
0
0
0
0
0
0
0
0
0
0
0
0
0
0
0
-34.414833
0
0
0
0
-30.224677
0
0
0
0
0
0
0
0
-25.600394
-35.34426
-74.753748
-18.615456
0
0
0
0
0
0
-30.647462
0
-72.800962
0
0
-89.352718
0
-19.032964
0
-8.5076161
0
-13.211431
0
0
-31.37532
-29.607242
-53.212311
-11.948103
-66.722466
-17.184807
-21.819291
0
0
0
0
0
-89.663587
0
0
0
0
0
-13.376592
0
-41.371794
-89.301427
-89.554791
0
-104.63523
-37.766538
-63.549395
-60.499875
0
-111.96582
0
0
0
0
-28.494642
0
-14.840605
0
0
0
0
-10.118542
0
0
0
-24.996624
0
-10.549853
0
-13.884271
0
0
0
0
0
0
0
0
0
0
0
0
0
0
0
0
0
0
0
-101.41121
-102.66141
-73.283796
-131.22633
0
0
0
-168.00981
0
0
0
0
0
-184.11198
0
0
0
-138.2374
-119.68295
-91.919584
0
0
-78.951762
-177.68878
0
0
0
0
0
0
-91.381533
0
0
-71.44745
0
0
0
0
0
0
0
0
0
0
0
0
-103.88691
-67.705538
0
0
0
0
0
0
0
0
0
0
0
0
0
0
-119.74054
0
0
0
-76.699334
0
0
0
0
-154.64416
-140.35661
0
0
0
-155.705
-219.62116
-202.25468
-195.45437
-150.30012
-163.6327
-221.02719
0
-210.80407
-195.09718
-192.07266
0
0
-207.00473
-150.7989
0
0
0
0
0
-201.38642
-132.06365
0
0
0
-187.39809
0
0
-165.89776
-139.86678
0
0
-180.00311
0
-218.33118
-102.11116
0
0
0
0
0
0
0
0
0
0
-197.98542
0
0
-138.8776
0
-213.8784
-187.91775
0
0
0
0
-187.18229
0
0
0
0
0
0
-163.95136
0
0
-141.40813
0
0
0
0
-200.04414
0
0
0
0
0
0
0
-176.71943
-198.6048
-219.5371
-178.52915
-202.84394
-179.99469
-167.87002
0
0
0
0
0
0
0
-99.415096
-157.74876
-183.0768
-167.26283
-142.91202
-140.16964
-120.85895
0
-114.15582
-120.10938
-166.19273
-122.60178
0
-115.08645
-80.774202
0
-77.519506
-100.93711
-172.40523
-127.7032
-130.76325
-139.25686
-135.27572
0
0
0
0
0
0
0
0
0
-118.12161
-108.18927
0
0
0
0
0
0
0
0
0
0
0
0
0
0
0
0
0
0
0
0
0
0
0
0
0
0
0
0
0
0
0
0
0
0
0
0
0
0
-44.379161
-41.757311
0
0
0
-47.20418
0
0
0
0
0
0
0
0
0
0
0
0
0
0
0
0
0
0
0
0
0
0
0
0
0
0
0
0
-33.773223
-27.737544
-34.04229
-24.787018
-34.155682
-26.880368
-32.234912
0
0
0
-50.371704
-60.163166
-69.555743
-44.52011
-23.849113
-24.041498
-29.026464
-20.173563
-24.684687
-27.142278
-20.252188
0
0
0
0
0
0
0
0
0
0
0
-52.586262
0
0
0
0
0
0
0
0
0
-15.592864
-22.841878
-18.922817
-18.414693
-13.8347
-20.863234
-18.825749
0
0
0
0
0
0
0
0
0
0
-29.049927
-34.57184
-22.709325
-29.642839
-21.649535
-30.510444
-37.000795
-77.851263
-51.551195
0
0
-54.303173
0
-63.902398
-113.91348
-97.027801
0
0
-55.433548
-96.347581
-106.153
0
0
0
0
0
0
0
0
0
0
0
0
-57.053908
-39.112116
-38.865576
-37.59293
-48.104379
-45.290447
-45.7742
0
0
0
0
0
0
0
0
0
0
0
0
0
0
0
-115.96924
-93.395781
-96.955864
-96.031671
-111.43793
-92.345482
-116.79086
0
-45.498181
0
0
0
-53.246986
0
0
0
0
0
0
-74.335837
-90.064161
0
0
0
-82.102159
-78.914064
0
-109.6384
-103.09766
-108.98788
0
-37.11011
-112.97084
-115.48674
-103.5224
0
0
-106.53044
0
-113.54617
0
0
0
0
0
0
0
0
0
0
-134.30136
-161.50497
-149.46581
-159.81774
-137.78906
-139.27472
-162.7939
0
0
0
0
0
0
0
-94.276661
0
0
0
0
0
-109.60617
0
0
0
0
0
0
0
0
-99.424809
0
0
0
-78.301089
-101.59242
0
0
0
0
0
0
0
-168.42202
-157.62418
-182.20756
0
0
0
0
0
0
-169.98258
-173.74598
-184.19927
0
-66.581778
0
0
0
0
0
0
0
0
0
0
0
0
-55.082944
-10.822851
0
0
0
0
0
0
0
0
0
0
0
0
0
0
0
0
0
0
0
0
0
0
0
0
0
0
0
0
0
0
0
0
0
0
0
0
0
0
0
0
0
0
0
-174.10986
-215.88153
-180.86801
-190.1992
-202.83587
-181.24221
-227.12692
-126.15038
-204.42359
-154.07739
-165.1681
-191.64214
-139.51731
-212.78337
-165.11346
-193.88485
-189.68078
-116.31324
-140.57108
-211.61655
-142.14796
0
0
0
0
0
0
0
-189.44581
-206.55636
-218.55062
-170.48571
-183.49748
-232.05504
-165.68399
0
0
0
0
0
0
0
0
0
0
0
0
0
0
0
0
0
0
0
0
-47.949204
0
0
0
0
0
0
0
0
0
0
0
0
0
0
0
0
0
0
0
0
0
0
0
0
0
0
0
0
0
0
0
0
0
0
0
0
0
0
0
0
0
0
-46.240876
-29.07403
-35.336077
-35.935595
0
0
-25.0296
-37.70253
0
0
-34.089754
-28.40334
-36.383611
-27.982964
-35.054568
-34.691333
-27.402449
-29.202798
-21.051789
0
0
0
-22.367683
-29.794415
-30.510151
0
-23.980854
0
-32.690404
0
-23.177601
0
0
0
-62.413412
-105.00199
-78.948141
-87.06475
0
0
0
-33.935722
0
0
0
0
0
0
0
0
0
0
-42.705193
0
-40.475013
-29.489536
-42.939992
-45.203684
-25.297079
-44.365321
-46.021796
-45.156032
-29.975894
-38.98736
-56.036379
-36.31805
-57.569656
-87.98286
-57.352183
-61.847229
-52.57474
-66.244493
-73.554874
-33.139413
-16.739484
-24.471179
-24.212122
-32.419006
-19.836487
-26.149302
0
0
-49.594396
-35.048612
0
-54.432971
0
0
-77.470583
-80.693139
-52.145933
0
-66.528354
-105.51829
-86.742851
-70.353575
-86.145218
-101.36201
-71.741516
0
-108.42422
0
-30.922816
0
-35.976386
0
0
-49.92922
0
-19.840546
-23.249249
0
0
-19.921515
0
0
0
-10.527534
-11.210365
0
-13.464719
0
0
0
0
0
0
0
0
0
-17.618793
-12.716414
0
-16.663926
0
0
0
-20.267155
0
-13.219395
0
0
-16.4123
-31.539761
-44.127322
-28.167168
-33.795061
-36.758233
-44.103651
-26.119545
-29.791184
-38.97674
-53.387282
-41.343246
-32.205247
-46.35438
-34.614625
-20.516261
-15.724791
-13.396381
-15.488186
-19.942394
-17.06572
-16.520634
-35.386224
-55.729137
-49.931975
-60.01012
-42.886696
-52.406614
-41.030485
-24.284251
-22.792549
-21.29736
-15.651066
-28.104341
-20.612224
-18.80886
-26.353419
-29.186202
-32.226716
-18.676118
-25.734271
-38.915774
-21.484536
0
0
0
0
0
0
-35.191141
0
0
0
0
-101.25394
-61.907005
-75.411628
-68.874968
0
0
0
0
-18.528672
0
0
0
0
0
0
-18.089666
0
0
0
0
-55.612811
-50.65619
-65.951984
-106.54184
-69.699169
-87.096154
-114.95986
-93.323287
-91.209798
-109.03693
-110.96922
-103.34096
-109.88627
0
0
0
-97.873506
-109.20351
-112.39671
-45.207955
-46.235686
-58.077267
-74.169525
-39.74023
-63.043029
-53.249522
0
0
0
-117.18191
-95.840601
0
0
0
0
0
0
0
0
0
0
0
0
0
0
0
-19.974626
-38.600987
-22.003081
-24.196891
-27.090431
-31.000781
-16.27359
0
0
0
-16.260209
0
0
0
0
0
0
-19.354742
-21.527234
-12.178862
0
0
0
-8.678694
0
0
0
0
0
0
-10.060062
0
0
0
0
0
0
0
0
0
0
0
-16.020675
-23.277308
-21.711113
-21.246444
-21.340585
-19.514136
-16.221642
0
-13.855883
0
0
0
-16.315742
0
-12.026872
-14.320315
-11.850884
0
-10.796478
-15.101731
-9.0577307
-11.091254
0
-16.905229
0
-16.949022
-9.8828547
0
-12.341744
-9.6410553
-17.325585
-13.03085
-15.970405
-12.375743
-9.5602269
0
0
0
0
0
0
0
0
0
0
0
0
0
0
0
0
0
0
0
-27.171672
0
0
0
0
0
0
0
0
-72.094959
0
-49.783136
0
-49.627853
-64.430099
0
-109.4453
0
-116.85507
-107.13348
-129.75437
0
-87.856872
-99.528123
-97.130537
0
0
-80.985512
-119.92381
0
-172.82669
-191.68993
-177.34187
-170.80527
-183.24981
-181.80673
-179.85575
0
0
0
0
0
0
0
0
0
0
-98.858353
-114.05781
0
0
0
-115.70086
0
0
0
-113.98661
0
0
0
0
0
0
0
0
-156.43151
-178.80466
-159.84464
-158.7849
-180.98276
-175.6701
-121.56993
0
0
0
0
0
-65.186803
0
0
-99.939394
0
0
-82.062443
0
0
-164.96069
-171.40651
-119.44956
-150.65307
-131.08397
-154.37791
-175.6163
-141.08627
-132.81286
-101.46051
-130.9413
-118.46612
-122.41322
-144.4221
-125.51813
-69.019947
-107.54499
-105.34967
-127.43263
-93.855269
-99.058648
-132.27218
0
0
-116.35621
-122.41332
0
-121.66711
-141.46618
-117.69673
-95.706206
0
-134.04324
-123.61043
-89.44888
-168.65962
-163.33823
-157.75362
-174.7032
-144.16889
-176.14172
-171.422
0
0
-111.4513
-108.38162
0
-96.671765
-113.0658
-80.562968
-54.700429
-86.61775
-88.393617
-67.110085
-63.732215
-105.12019
-45.687612
0
0
0
0
-36.279628
0
-62.890054
0
0
0
0
0
0
0
0
0
0
0
0
0
0
0
0
0
0
0
0
-106.54216
0
-100.80363
-98.498787
0
0
-109.80711
-79.095581
-55.259647
-70.914847
0
-56.529203
-63.938035
-90.204191
-98.943215
0
0
-120.53203
0
-111.50426
-111.26079
-39.288138
0
0
-73.526909
0
-64.118663
-43.500726
0
0
0
0
0
0
0
-137.58835
0
-92.419131
0
-111.89125
-122.08503
0
-123.46919
-133.06093
-102.09189
-128.50342
-121.79429
-111.47026
-126.57252
-65.736889
0
0
-77.094916
0
-77.115955
-54.632896
0
0
0
0
0
0
0
0
0
0
0
0
0
0
-116.97064
-80.707077
-89.037444
-101.10179
-111.25059
-95.757152
-105.49428
-131.02174
0
-122.76387
0
-123.54261
0
-110.92217
0
0
0
0
0
0
0
0
-107.68464
0
0
-167.88602
0
-119.6753
0
-166.09349
-100.98861
0
0
-119.18313
0
0
0
0
0
0
0
0
-206.02233
-206.96332
-203.44967
-203.64807
-210.46744
-205.08323
-210.94814
-203.05293
-212.18195
-194.62022
-204.46086
-202.77438
-209.58025
-202.16897
0
-87.704621
-93.046347
-107.41691
0
0
-102.07348
-165.10957
-196.07203
-163.75304
-180.22359
-211.98536
-204.41427
-171.68632
-146.92722
-190.50818
-154.76717
-174.2297
-216.23087
-163.82531
-207.434
-171.8815
-219.63655
-144.81887
-206.94609
-162.82744
-210.09443
-165.98072
-108.4712
0
0
-107.695
-35.624853
-106.33445
-113.28287
-106.97543
0
-93.01976
0
0
-103.0002
-105.59363
-179.40472
-211.31575
-205.04816
-174.84371
-205.23408
-175.3139
-176.44591
-117.17124
-113.73002
-87.03931
-200.0385
-158.10841
-147.13315
0
0
0
0
-98.415735
0
-103.3734
0
0
0
0
0
0
0
0
0
0
0
0
0
-103.03535
0
0
0
0
0
0
0
0
-126.6251
-204.56755
-168.09557
-155.07058
-169.59959
-159.72146
-120.42533
0
-158.36311
0
0
0
-91.2008
0
0
0
-76.354144
0
0
0
0
0
-188.19902
-147.7205
-136.62976
-134.88221
0
-116.64891
-155.62774
-178.98887
-99.988062
-196.50062
-196.92775
-148.11588
-121.08947
-159.14946
-144.99552
-145.43738
-167.79248
-148.91734
-169.30729
-158.53842
-125.05579
0
0
-117.58247
-117.20871
0
-123.0367
-108.61293
0
-101.28858
0
-113.1311
-86.752585
0
-158.32985
-187.91581
-167.87517
-155.54659
-162.30642
-182.03297
-143.36617
-101.8924
0
0
0
-93.113556
-63.751976
0
-176.3055
-209.94394
-200.46691
-173.68815
-201.67451
-169.75117
-174.0524
0
0
0
0
0
0
0
-109.63163
0
-104.00215
-120.44962
0
0
-118.00982
-182.63677
-158.47539
-160.51761
-176.53405
-212.22028
-189.87528
-181.08011
0
0
-95.189713
-118.73464
0
0
-97.0382
-140.28296
0
0
-107.5577
0
-116.79778
-131.38168
-167.55004
-136.71013
-147.83955
-165.60545
-141.77347
-163.19832
-171.1125
-135.16904
0
0
-127.46725
0
-123.39767
-133.07531
-188.82975
-220.39072
-185.06912
-192.79276
-194.7218
-195.85081
-185.35481
-140.72935
-142.6506
-96.981163
-113.61901
-200.18621
-156.13119
-166.49838
0
0
0
0
0
0
0
0
0
0
0
0
0
0
0
0
-94.768231
0
0
-110.13645
0
-119.11842
-202.5766
-156.38255
-144.74901
-159.81469
-175.13487
-103.91128
0
0
0
0
0
0
0
0
-127.12624
-117.8072
-110.10014
0
0
0
0
0
0
0
0
0
0
-123.80256
-143.35483
-146.43766
-164.20423
-126.15596
-148.46495
-164.83738
0
0
0
0
0
-98.015005
0
0
0
-121.29489
0
0
-120.92787
0
-114.70729
-162.9732
-185.01232
-145.23846
-149.60994
-170.75668
0
0
0
0
0
0
0
0
0
0
0
0
0
0
0
0
0
0
0
0
0
0
0
0
0
0
0
0
0
0
0
0
0
0
0
0
0
0
0
0
0
0
0
0
0
0
0
0
0
0
0
0
0
0
0
0
0
0
0
0
0
0
0
0
0
0
0
0
0
0
0
0
0
0
0
0
0
0
0
0
0
0
0
0
0
0
0
0
-32.388296
-20.593668
-29.255857
-26.621247
-38.213274
-28.248835
-20.802867
0
0
0
0
0
0
0
0
0
0
0
0
0
0
0
0
0
0
0
0
0
-16.747072
-17.986349
-23.325891
-11.766611
0
0
0
0
0
0
0
0
0
0
0
0
0
0
0
0
0
0
0
0
0
0
0
-35.888388
0
0
0
0
0
0
0
0
0
0
0
0
0
0
0
0
0
0
0
-45.111351
-37.318355
-71.573606
-36.432007
-52.324545
-39.096619
0
-15.451107
-14.872593
-20.412824
0
0
0
0
0
0
0
0
0
0
0
-24.556466
-16.556404
-26.316046
0
0
0
0
0
0
0
0
0
0
0
0
0
0
0
0
0
0
-13.457039
0
0
0
0
0
0
0
0
0
0
0
0
0
0
0
0
0
0
0
0
0
0
0
0
0
-27.666466
-26.12586
-37.200961
-25.642892
-32.630747
-31.331789
-22.477432
-137.95144
-99.28634
-88.76101
-104.31723
-108.27244
-131.0441
-112.30299
)


2290
(
0
0
0
0
0
0
0
0
0
0
0
0
0
0
0
0
0
0
0
0
0
0
0
0
0
0
0
0
0
-110.0273
0
-107.94541
0
0
0
0
0
0
0
0
0
0
0
0
0
0
0
0
0
0
0
0
0
0
0
0
0
0
0
0
0
0
0
0
0
0
0
0
0
-21.308668
0
0
0
0
-20.827398
0
0
-30.17225
0
0
0
0
-17.704026
0
0
0
-19.715307
0
0
0
0
-80.297025
0
0
0
0
0
0
0
0
0
-21.891809
0
0
0
0
-90.231245
0
0
0
0
0
0
0
0
0
0
0
0
0
0
0
0
0
0
0
0
0
0
0
0
0
0
0
-122.89821
0
0
0
0
0
0
0
0
0
-109.87065
0
0
0
0
0
0
0
0
-113.6497
-177.29273
0
-165.6391
-157.94912
0
-162.58922
0
0
0
-137.65662
0
0
0
0
0
0
0
0
0
0
0
0
0
0
0
0
0
0
0
0
0
0
0
0
0
0
0
0
0
0
0
0
0
0
0
0
0
0
0
-152.73385
0
0
-170.97739
0
0
-18.225119
0
0
0
0
0
0
0
0
0
0
0
-15.75292
0
0
0
0
0
0
0
0
0
0
0
0
0
0
0
-163.60917
-169.6062
-161.97145
0
-170.67563
0
0
0
0
0
0
0
0
0
0
0
0
0
0
0
0
0
0
0
-111.53497
-137.26487
-136.98713
0
0
0
0
-71.172194
0
0
-90.595856
-128.78314
-103.49118
0
0
0
0
0
0
0
0
0
0
0
0
0
0
0
0
0
0
0
0
0
0
0
0
0
0
0
0
0
0
0
0
0
0
0
0
0
0
0
0
0
0
0
0
0
0
0
0
0
0
0
0
0
0
0
0
0
0
0
-48.396298
0
0
0
0
-38.594038
0
0
0
0
0
0
0
0
-34.902234
-53.515696
-96.015256
-36.456631
0
0
0
0
0
0
-39.810721
0
-62.827067
0
0
-87.226213
0
-30.863102
0
-9.4799858
0
-19.918085
0
0
-44.689751
-36.501875
-37.232679
-12.564215
-78.183176
-25.008721
-19.530713
0
0
0
0
0
-89.728337
0
0
0
0
0
-24.898149
0
-50.682698
-107.22753
-73.726202
0
-106.93137
-41.36539
-43.291494
-70.02932
0
-115.26061
0
0
0
0
-49.532284
0
-32.24338
0
0
0
0
-17.418905
0
0
0
-33.063197
0
-10.237469
0
-21.404817
0
0
0
0
0
0
0
0
0
0
0
0
0
0
0
0
0
0
0
-113.05057
-87.007349
-68.245561
-131.36182
0
0
0
-169.51234
0
0
0
0
0
-170.58577
0
0
0
-157.33711
-118.25065
-89.768364
0
0
-120.33526
-182.86457
0
0
0
0
0
0
-60.221348
0
0
-36.436642
0
0
0
0
0
0
0
0
0
0
0
0
-94.133908
-60.828627
0
0
0
0
0
0
0
0
0
0
0
0
0
0
-121.60163
0
0
0
-121.65804
0
0
0
0
-134.95249
-137.86627
0
0
0
-122.86
-173.22752
-194.52694
-178.33228
-123.74369
-146.39679
-181.4562
0
-182.63637
-180.17081
-174.78418
0
0
-180.26349
-126.05003
0
0
0
0
0
-169.42721
-101.78309
0
0
0
-152.23797
0
0
-129.17369
-129.33993
0
0
-170.48515
0
-182.04189
-88.999015
0
0
0
0
0
0
0
0
0
0
-164.30437
0
0
-122.71747
0
-183.65114
-158.12928
0
0
0
0
-169.07483
0
0
0
0
0
0
-133.64432
0
0
-133.21798
0
0
0
0
-161.58815
0
0
0
0
0
0
0
-142.7833
-166.03309
-172.71103
-160.9177
-163.60579
-142.42569
-142.96374
0
0
0
0
0
0
0
-87.780982
-142.92984
-161.8959
-142.17584
-123.3552
-120.80153
-116.817
0
-104.45857
-106.64792
-161.37325
-110.29952
0
-105.34622
-64.660214
0
-65.431906
-81.161435
-150.76642
-130.87517
-125.95738
-118.70787
-119.9198
0
0
0
0
0
0
0
0
0
-106.92241
-100.94286
0
0
0
0
0
0
0
0
0
0
0
0
0
0
0
0
0
0
0
0
0
0
0
0
0
0
0
0
0
0
0
0
0
0
0
0
0
0
-48.544716
-56.281189
0
0
0
-59.49268
0
0
0
0
0
0
0
0
0
0
0
0
0
0
0
0
0
0
0
0
0
0
0
0
0
0
0
0
-27.73737
-25.515203
-26.206101
-18.343647
-29.38753
-23.195796
-23.922588
0
0
0
-84.887868
-112.64583
-116.95843
-81.04666
-25.805666
-24.427861
-24.72783
-18.289877
-21.51609
-29.577928
-21.749845
0
0
0
0
0
0
0
0
0
0
0
-101.44943
0
0
0
0
0
0
0
0
0
-15.236527
-21.651549
-14.471155
-15.174442
-11.415636
-19.158123
-18.572621
0
0
0
0
0
0
0
0
0
0
-19.127314
-24.790454
-17.24777
-17.554827
-15.119746
-22.600471
-22.767133
-112.09696
-77.281597
0
0
-83.707795
0
-109.00354
-111.66306
-102.99946
0
0
-32.66129
-105.70326
-103.12242
0
0
0
0
0
0
0
0
0
0
0
0
-27.774268
-26.107409
-25.122418
-19.367913
-22.070808
-29.241156
-24.30282
0
0
0
0
0
0
0
0
0
0
0
0
0
0
0
-94.215146
-72.825726
-75.268935
-77.116639
-88.929928
-72.778619
-96.161969
0
-69.840213
0
0
0
-92.169161
0
0
0
0
0
0
-76.68251
-94.994467
0
0
0
-88.17746
-75.155599
0
-91.631276
-91.45743
-97.651906
0
-51.594142
-92.262162
-68.670212
-91.729644
0
0
-88.132546
0
-71.927179
0
0
0
0
0
0
0
0
0
0
-111.96947
-134.05967
-126.06102
-136.92917
-111.46989
-116.42144
-136.24078
0
0
0
0
0
0
0
-83.085533
0
0
0
0
0
-84.916307
0
0
0
0
0
0
0
0
-87.086924
0
0
0
-63.319514
-67.314927
0
0
0
0
0
0
0
-173.13136
-157.05466
-163.0658
0
0
0
0
0
0
-163.48664
-148.66128
-159.54106
0
-47.984653
0
0
0
0
0
0
0
0
0
0
0
0
-30.747604
-8.6874449
0
0
0
0
0
0
0
0
0
0
0
0
0
0
0
0
0
0
0
0
0
0
0
0
0
0
0
0
0
0
0
0
0
0
0
0
0
0
0
0
0
0
0
-147.53399
-170.43784
-140.22693
-151.05314
-164.57346
-150.04644
-176.83918
-115.27401
-174.43984
-137.98089
-151.72851
-167.09414
-118.93202
-188.81947
-147.48527
-163.67474
-179.03101
-120.17199
-118.31941
-191.50236
-140.96399
0
0
0
0
0
0
0
-158.68587
-166.2619
-184.11231
-142.43221
-150.59013
-184.59103
-151.32012
0
0
0
0
0
0
0
0
0
0
0
0
0
0
0
0
0
0
0
0
-75.420156
0
0
0
0
0
0
0
0
0
0
0
0
0
0
0
0
0
0
0
0
0
0
0
0
0
0
0
0
0
0
0
0
0
0
0
0
0
0
0
0
0
0
-98.526884
-46.351387
-73.856962
-41.920108
0
0
-41.304818
-54.562681
0
0
-35.486991
-31.299064
-44.506025
-36.738523
-44.009515
-35.863296
-30.051078
-26.293211
-15.370417
0
0
0
-20.890627
-21.251059
-35.221135
0
-34.652409
0
-44.105028
0
-28.742188
0
0
0
-88.387224
-133.52898
-94.220502
-122.399
0
0
0
-54.02283
0
0
0
0
0
0
0
0
0
0
-66.734895
0
-58.720259
-37.651405
-51.215724
-64.712343
-37.445374
-85.062309
-98.032497
-55.769142
-50.98796
-52.528688
-96.950354
-86.408791
-87.916085
-118.85025
-81.995128
-67.477925
-63.041242
-96.525261
-102.19022
-68.503647
-45.769847
-36.831184
-44.400899
-44.26227
-45.992057
-69.684588
0
0
-52.957518
-37.499012
0
-52.343553
0
0
-71.258473
-75.683509
-47.652697
0
-61.131029
-85.473177
-66.345673
-68.739977
-87.268883
-85.147348
-70.780703
0
-94.687751
0
-32.486909
0
-34.481599
0
0
-44.66275
0
-31.675088
-28.152122
0
0
-29.256734
0
0
0
-13.165662
-11.827232
0
-16.860936
0
0
0
0
0
0
0
0
0
-23.35821
-16.466026
0
-20.639965
0
0
0
-21.296941
0
-15.006864
0
0
-23.119947
-37.961832
-55.917629
-39.435794
-38.446862
-43.344927
-47.552039
-33.97349
-34.078669
-30.116287
-50.26253
-32.020802
-25.822106
-45.33697
-38.299391
-22.842169
-15.527511
-16.350843
-15.081044
-18.2888
-20.297799
-19.118468
-42.502806
-69.663035
-54.993621
-64.930461
-50.2189
-58.219897
-46.916338
-26.872691
-27.833827
-28.185464
-20.215493
-30.975162
-24.015883
-23.287627
-31.145851
-31.011564
-26.945488
-18.218007
-22.219886
-38.691523
-27.64017
0
0
0
0
0
0
-45.198799
0
0
0
0
-90.261539
-63.965461
-72.543655
-60.957754
0
0
0
0
-26.983596
0
0
0
0
0
0
-26.686704
0
0
0
0
-102.1174
-56.630748
-103.46579
-135.44463
-70.424574
-110.36097
-136.86893
-98.216503
-85.784591
-80.151193
-113.00914
-91.247214
-126.13289
0
0
0
-98.813238
-120.66533
-123.86016
-46.29351
-34.894988
-54.300676
-49.560442
-41.860993
-60.225215
-38.897183
0
0
0
-121.91815
-107.86109
0
0
0
0
0
0
0
0
0
0
0
0
0
0
0
-61.926977
-91.847602
-42.309476
-45.504351
-70.25778
-79.156103
-37.17414
0
0
0
-28.624211
0
0
0
0
0
0
-40.198906
-62.328047
-32.024382
0
0
0
-10.915636
0
0
0
0
0
0
-14.130035
0
0
0
0
0
0
0
0
0
0
0
-19.35664
-26.562146
-29.299117
-27.848588
-24.354261
-22.789628
-23.390831
0
-11.135447
0
0
0
-16.466603
0
-11.563262
-12.662513
-13.161406
0
-8.9616394
-15.583125
-9.070702
-15.555411
0
-24.91553
0
-21.844321
-18.458832
0
-14.76659
-14.673737
-24.325256
-16.798812
-19.618109
-18.523595
-11.581824
0
0
0
0
0
0
0
0
0
0
0
0
0
0
0
0
0
0
0
-19.076405
0
0
0
0
0
0
0
0
-112.23509
0
-90.719558
0
-93.085348
-99.045106
0
-138.82264
0
-90.15145
-148.70839
-144.91483
0
-144.03788
-125.28619
-87.926645
0
0
-88.945047
-131.04302
0
-150.21801
-160.59171
-172.48245
-168.35089
-162.65608
-158.82281
-162.06432
0
0
0
0
0
0
0
0
0
0
-76.108831
-87.636602
0
0
0
-77.190675
0
0
0
-85.687808
0
0
0
0
0
0
0
0
-126.09794
-178.59089
-131.74285
-129.36525
-158.41873
-155.41252
-95.849206
0
0
0
0
0
-80.133283
0
0
-71.93755
0
0
-71.973541
0
0
-164.41348
-160.27279
-144.222
-162.44493
-152.05441
-162.44665
-164.89475
-152.57498
-140.11853
-117.10238
-128.12514
-128.23077
-153.2672
-143.05821
-126.58026
-60.103897
-93.340898
-139.05032
-150.79855
-68.236475
-120.59986
-115.4582
0
0
-91.819929
-103.21415
0
-102.05798
-123.55683
-94.422541
-81.674523
0
-134.82074
-99.916461
-64.541861
-160.59635
-173.58078
-171.62294
-145.72565
-159.53887
-164.16128
-151.50391
0
0
-68.839171
-49.125033
0
-107.30119
-60.950917
-36.035887
-29.718843
-41.685258
-41.71947
-29.175574
-33.78819
-54.357029
-25.479318
0
0
0
0
-21.582042
0
-37.6707
0
0
0
0
0
0
0
0
0
0
0
0
0
0
0
0
0
0
0
0
-85.2483
0
-73.772804
-76.088429
0
0
-89.021485
-86.989968
-54.076118
-99.774363
0
-52.324599
-72.60632
-113.2971
-92.424775
0
0
-113.75401
0
-112.3862
-98.69239
-79.199691
0
0
-100.21521
0
-107.26183
-71.076654
0
0
0
0
0
0
0
-134.79042
0
-139.46797
0
-140.26434
-124.96108
0
-158.75703
-141.2262
-121.60687
-135.27743
-159.48366
-135.21697
-131.14804
-68.300421
0
0
-87.100584
0
-84.076237
-63.678389
0
0
0
0
0
0
0
0
0
0
0
0
0
0
-146.84763
-128.46745
-122.34229
-136.03503
-157.8084
-130.92685
-126.38098
-137.05565
0
-117.84689
0
-128.80283
0
-100.65532
0
0
0
0
0
0
0
0
-101.31517
0
0
-137.82731
0
-108.02263
0
-142.13564
-94.581463
0
0
-109.01361
0
0
0
0
0
0
0
0
-169.04084
-186.68859
-162.5837
-168.14745
-189.01509
-173.99119
-197.72511
-173.44846
-182.70489
-178.95586
-180.88216
-182.6319
-188.67239
-178.06128
0
-93.710362
-92.996221
-101.16974
0
0
-97.219685
-150.59488
-191.79432
-145.35423
-145.37475
-193.75732
-186.17856
-145.82014
-146.034
-184.19304
-144.04205
-147.85772
-176.01763
-151.62404
-179.98903
-157.12505
-176.17986
-132.92518
-177.33485
-151.914
-177.12254
-150.15711
-100.67005
0
0
-97.992666
-46.372798
-97.774959
-97.34696
-98.186772
0
-79.263416
0
0
-92.999238
-92.596058
-149.21222
-183.5061
-176.78882
-149.09262
-178.72171
-157.60192
-144.5692
-109.71615
-102.40233
-60.380542
-168.61938
-134.56602
-138.75364
0
0
0
0
-87.556544
0
-89.946856
0
0
0
0
0
0
0
0
0
0
0
0
0
-88.951066
0
0
0
0
0
0
0
0
-120.02067
-173.8018
-142.29125
-153.83155
-143.91636
-168.0954
-111.67134
0
-117.69265
0
0
0
-54.533223
0
0
0
-56.078809
0
0
0
0
0
-140.99581
-111.3972
-106.90113
-97.992435
0
-84.547804
-129.35351
-142.02022
-57.579503
-164.5583
-168.35677
-137.46477
-85.786481
-131.16207
-129.47069
-134.00423
-152.20374
-127.11837
-154.38562
-129.74494
-67.312887
0
0
-67.868772
-72.297716
0
-65.789443
-66.219983
0
-72.509518
0
-83.150397
-57.114481
0
-132.67296
-163.50304
-167.60332
-128.70769
-135.0268
-166.8313
-114.77939
-59.211092
0
0
0
-60.474189
-37.023897
0
-146.1247
-178.97718
-176.7016
-153.02395
-180.00097
-160.88049
-145.57331
0
0
0
0
0
0
0
-95.637138
0
-95.217147
-106.98645
0
0
-101.37258
-156.28755
-146.08881
-139.62252
-154.09822
-169.81429
-158.41668
-153.6097
0
0
-85.756615
-104.03247
0
0
-87.914802
-120.63217
0
0
-98.139703
0
-98.616221
-114.93027
-144.69535
-111.50463
-137.57318
-143.89593
-122.05499
-136.50473
-155.57437
-117.2671
0
0
-113.67686
0
-107.58388
-116.40592
-162.8094
-175.88545
-162.74692
-163.92687
-159.87951
-160.24626
-163.96781
-138.70157
-123.27279
-98.224913
-103.70818
-171.27449
-136.72402
-134.42544
0
0
0
0
0
0
0
0
0
0
0
0
0
0
0
0
-84.363039
0
0
-88.51299
0
-101.6039
-176.85545
-145.66236
-129.2952
-134.23154
-144.21713
-95.929926
0
0
0
0
0
0
0
0
-98.713661
-102.16432
-91.397855
0
0
0
0
0
0
0
0
0
0
-106.06083
-128.95723
-143.9219
-149.01204
-114.50634
-120.76703
-156.14907
0
0
0
0
0
-54.457721
0
0
0
-107.53294
0
0
-105.11865
0
-97.634894
-129.96277
-159.2924
-114.69859
-122.59713
-146.2203
0
0
0
0
0
0
0
0
0
0
0
0
0
0
0
0
0
0
0
0
0
0
0
0
0
0
0
0
0
0
0
0
0
0
0
0
0
0
0
0
0
0
0
0
0
0
0
0
0
0
0
0
0
0
0
0
0
0
0
0
0
0
0
0
0
0
0
0
0
0
0
0
0
0
0
0
0
0
0
0
0
0
0
0
0
0
0
0
-21.003285
-14.822733
-15.000273
-17.109326
-17.078585
-12.141415
-10.726854
0
0
0
0
0
0
0
0
0
0
0
0
0
0
0
0
0
0
0
0
0
-12.928667
-12.379769
-13.115181
-9.2294409
0
0
0
0
0
0
0
0
0
0
0
0
0
0
0
0
0
0
0
0
0
0
0
-33.622826
0
0
0
0
0
0
0
0
0
0
0
0
0
0
0
0
0
0
0
-24.921337
-24.90302
-29.082303
-20.169649
-21.980588
-14.765004
0
-11.696464
-10.037958
-13.26871
0
0
0
0
0
0
0
0
0
0
0
-18.356832
-10.892801
-15.1289
0
0
0
0
0
0
0
0
0
0
0
0
0
0
0
0
0
0
-9.7675555
0
0
0
0
0
0
0
0
0
0
0
0
0
0
0
0
0
0
0
0
0
0
0
0
0
-30.193296
-29.134493
-41.553442
-31.718279
-36.037241
-34.941936
-25.867462
-165.07362
-130.25346
-120.63263
-152.55351
-132.82077
-158.04924
-167.15398
)


2290
(
0
0
0
0
0
0
0
0
0
0
0
0
0
0
0
0
0
0
0
0
0
0
0
0
0
0
0
0
0
-97.591807
0
-95.556714
0
0
0
0
0
0
0
0
0
0
0
0
0
0
0
0
0
0
0
0
0
0
0
0
0
0
0
0
0
0
0
0
0
0
0
0
0
-25.208958
0
0
0
0
-23.931211
0
0
-33.132218
0
0
0
0
-22.563875
0
0
0
-21.634539
0
0
0
0
-71.102817
0
0
0
0
0
0
0
0
0
-23.224213
0
0
0
0
-79.253976
0
0
0
0
0
0
0
0
0
0
0
0
0
0
0
0
0
0
0
0
0
0
0
0
0
0
0
-111.51378
0
0
0
0
0
0
0
0
0
-99.106904
0
0
0
0
0
0
0
0
-114.71771
-177.89363
0
-175.08959
-145.13044
0
-155.35203
0
0
0
-141.57733
0
0
0
0
0
0
0
0
0
0
0
0
0
0
0
0
0
0
0
0
0
0
0
0
0
0
0
0
0
0
0
0
0
0
0
0
0
0
0
-165.83726
0
0
-187.54335
0
0
-19.813341
0
0
0
0
0
0
0
0
0
0
0
-18.25422
0
0
0
0
0
0
0
0
0
0
0
0
0
0
0
-147.56932
-166.40705
-154.13693
0
-185.12456
0
0
0
0
0
0
0
0
0
0
0
0
0
0
0
0
0
0
0
-97.679154
-123.02277
-121.08109
0
0
0
0
-76.476585
0
0
-85.715974
-118.65469
-99.102839
0
0
0
0
0
0
0
0
0
0
0
0
0
0
0
0
0
0
0
0
0
0
0
0
0
0
0
0
0
0
0
0
0
0
0
0
0
0
0
0
0
0
0
0
0
0
0
0
0
0
0
0
0
0
0
0
0
0
0
-116.1666
0
0
0
0
-75.00319
0
0
0
0
0
0
0
0
-51.349746
-115.56639
-121.40078
-65.957147
0
0
0
0
0
0
-39.194008
0
-59.272249
0
0
-109.76281
0
-37.691904
0
-14.635482
0
-47.305089
0
0
-59.955005
-77.124828
-43.843605
-18.138796
-95.073585
-60.585801
-26.870037
0
0
0
0
0
-119.50381
0
0
0
0
0
0
0
-119.875
-130.44666
-69.662362
0
-134.80715
-61.933545
-51.162957
-73.595955
0
-147.91524
0
0
0
0
-113.12503
0
-64.188429
0
0
0
0
-45.084397
0
0
0
-76.914403
0
-16.51938
0
-58.058573
0
0
0
0
0
0
0
0
0
0
0
0
0
0
0
0
0
0
0
-131.68006
-111.41985
-105.25555
-151.09463
0
0
0
-186.81785
0
0
0
0
0
-179.3546
0
0
0
-186.22281
-162.68559
-63.670917
0
0
-171.31955
-191.8253
0
0
0
0
0
0
-56.283038
0
0
-43.004629
0
0
0
0
0
0
0
0
0
0
0
0
-121.53859
-107.82855
0
0
0
0
0
0
0
0
0
0
0
0
0
0
-159.19476
0
0
0
-166.51119
0
0
0
0
-143.9946
-119.99995
0
0
0
-122.31762
-171.07402
-178.77689
-184.3938
-128.57251
-174.73521
-170.54695
0
-190.70571
-182.4343
-162.87121
0
0
-185.23017
-118.09868
0
0
0
0
0
-176.05736
-110.2406
0
0
0
-157.5367
0
0
-138.01476
-181.0028
0
0
-178.39263
0
-186.60569
-80.045419
0
0
0
0
0
0
0
0
0
0
-165.40811
0
0
-147.82509
0
-170.86514
-173.03774
0
0
0
0
-165.38686
0
0
0
0
0
0
-135.56682
0
0
-173.45984
0
0
0
0
-164.33975
0
0
0
0
0
0
0
-135.17744
-152.90067
-179.31924
-145.46288
-151.83184
-142.97311
-135.847
0
0
0
0
0
0
0
-110.84862
-137.28632
-177.16587
-137.89131
-129.11256
-136.26513
-115.63432
0
-108.78635
-107.6173
-160.22449
-117.80058
0
-122.91719
-65.266405
0
-66.461362
-79.467882
-142.79805
-115.93058
-124.73236
-111.8887
-118.87381
0
0
0
0
0
0
0
0
0
-109.8019
-94.855253
0
0
0
0
0
0
0
0
0
0
0
0
0
0
0
0
0
0
0
0
0
0
0
0
0
0
0
0
0
0
0
0
0
0
0
0
0
0
-77.473662
-75.981433
0
0
0
-79.053244
0
0
0
0
0
0
0
0
0
0
0
0
0
0
0
0
0
0
0
0
0
0
0
0
0
0
0
0
-34.594507
-34.663567
-29.6566
-22.521622
-34.819193
-33.378539
-27.624892
0
0
0
0
-145.79391
-142.35092
0
-33.697227
-34.393574
-27.507797
-23.00295
-25.671021
-37.100509
-32.213951
0
0
0
0
0
0
0
0
0
0
0
-140.88826
0
0
0
0
0
0
0
0
0
-27.626147
-33.047354
-19.536297
-21.59588
-17.534343
-30.691942
-31.297437
0
0
0
0
0
0
0
0
0
0
-16.453386
-25.332349
-18.152874
-17.64155
-13.529209
-22.339926
-20.855215
-83.365813
-65.76506
0
0
-64.636231
0
-77.909969
-120.14302
-94.041341
0
0
-57.375897
-106.77942
-95.613555
0
0
0
0
0
0
0
0
0
0
0
0
-24.792049
-27.302583
-26.308738
-18.83674
-21.164018
-30.385555
-22.254496
0
0
0
0
0
0
0
0
0
0
0
0
0
0
0
-88.298296
-62.804757
-72.935684
-90.031475
-83.019875
-70.843212
-104.79214
0
-61.684165
0
0
0
-69.348498
0
0
0
0
0
0
-70.162478
-84.743648
0
0
0
-82.600056
-67.466836
0
-94.898547
-99.917724
-103.89427
0
-44.306466
-99.704681
-80.083921
-74.629344
0
0
-72.96578
0
-77.012497
0
0
0
0
0
0
0
0
0
0
-105.38131
-120.48013
-121.48553
-141.3303
-103.85732
-123.44077
-129.53894
0
0
0
0
0
0
0
-77.606407
0
0
0
0
0
-88.090975
0
0
0
0
0
0
0
0
-71.140844
0
0
0
-58.20946
-63.686984
0
0
0
0
0
0
0
-180.47266
-173.07381
-173.55364
0
0
0
0
0
0
-176.48874
-162.84231
-163.58966
0
-44.520717
0
0
0
0
0
0
0
0
0
0
0
0
-36.11967
-11.544265
0
0
0
0
0
0
0
0
0
0
0
0
0
0
0
0
0
0
0
0
0
0
0
0
0
0
0
0
0
0
0
0
0
0
0
0
0
0
0
0
0
0
0
-147.9824
-167.50017
-148.67717
-162.95921
-164.15119
-155.2679
-184.23025
-121.49902
-182.83084
-145.58867
-150.19874
-170.61494
-129.3666
-182.41842
-147.54751
-183.17841
-185.78505
-107.10879
-132.40591
-183.10326
-143.18074
0
0
0
0
0
0
0
-156.12801
-182.03702
-181.66811
-149.14689
-164.72388
-186.48821
-147.11722
0
0
0
0
0
0
0
0
0
0
0
0
0
0
0
0
0
0
0
0
-73.522244
0
0
0
0
0
0
0
0
0
0
0
0
0
0
0
0
0
0
0
0
0
0
0
0
0
0
0
0
0
0
0
0
0
0
0
0
0
0
0
0
0
0
-148.175
-96.739637
-109.40254
-79.980226
0
0
-70.597309
-82.256085
0
0
-53.157235
-49.648604
-74.268452
-70.878531
-77.209721
-51.566154
-50.468039
-40.228607
-19.826196
0
0
0
-31.463499
-27.456916
-58.616739
0
-61.37576
0
-76.736896
0
-48.755357
0
0
0
0
-118.29035
0
-138.41683
0
0
0
0
0
0
0
0
0
0
0
0
0
0
-100.59785
0
-78.085858
-66.89723
-87.363857
-73.309687
0
-120.36244
-138.02999
-116.46635
-103.71459
-103.68856
-136.9745
-125.35232
-116.44124
-132.09247
-104.44405
-116.80572
-103.33162
-102.84892
-136.49694
0
0
-68.661727
-87.243921
-88.083511
0
0
0
0
-61.006507
-39.91594
0
-59.551229
0
0
-82.108031
-77.619087
-47.295628
0
-65.928696
-97.246052
-79.848358
-83.858347
-97.043075
-94.333866
-81.493721
0