/*--------------------------------*- C++ -*----------------------------------*\
  =========                 |
  \\      /  F ield         | OpenFOAM: The Open Source CFD Toolbox
   \\    /   O peration     | Website:  https://openfoam.org
    \\  /    A nd           | Version:  8
     \\/     M anipulation  |
\*---------------------------------------------------------------------------*/
/*   Windows 32 and 64 bit porting by blueCAPE: http://www.bluecape.com.pt   *\
|  Based on Windows porting (2.0.x v4) by Symscape: http://www.symscape.com   |
\*---------------------------------------------------------------------------*/
FoamFile
{
    version     2.0;
    format      ascii;
    class       polyBoundaryMesh;
    location    "constant/air/polyMesh";
    object      boundary;
}
// * * * * * * * * * * * * * * * * * * * * * * * * * * * * * * * * * * * * * //

13
(
    left
    {
        type            patch;
        nFaces          0;
        startFace       6731;
    }
    right
    {
        type            patch;
        nFaces          0;
        startFace       6731;
    }
    back
    {
        type            patch;
        nFaces          0;
        startFace       6731;
    }
    front
    {
        type            patch;
        nFaces          0;
        startFace       6731;
    }
    bottom
    {
        type            wall;
        inGroups        List<word> 1(wall);
        nFaces          139;
        startFace       6731;
    }
    top
    {
        type            patch;
        nFaces          0;
        startFace       6870;
    }
    tower
    {
        type            mappedWall;
        inGroups        List<word> 
2
(
wall
mappedPatch
)
;
        nFaces          168;
        startFace       6870;
        sampleMode      nearestPatchFace;
        sampleRegion    tower;
        samplePatch     buildings_to_air;
    }
    procBoundary16to10
    {
        type            processor;
        inGroups        List<word> 1(processor);
        nFaces          9;
        startFace       7038;
        matchTolerance  0.0001;
        myProcNo        16;
        neighbProcNo    10;
    }
    procBoundary16to11
    {
        type            processor;
        inGroups        List<word> 1(processor);
        nFaces          8;
        startFace       7047;
        matchTolerance  0.0001;
        myProcNo        16;
        neighbProcNo    11;
    }
    procBoundary16to14
    {
        type            processor;
        inGroups        List<word> 1(processor);
        nFaces          10;
        startFace       7055;
        matchTolerance  0.0001;
        myProcNo        16;
        neighbProcNo    14;
    }
    procBoundary16to15
    {
        type            processor;
        inGroups        List<word> 1(processor);
        nFaces          242;
        startFace       7065;
        matchTolerance  0.0001;
        myProcNo        16;
        neighbProcNo    15;
    }
    procBoundary16to17
    {
        type            processor;
        inGroups        List<word> 1(processor);
        nFaces          135;
        startFace       7307;
        matchTolerance  0.0001;
        myProcNo        16;
        neighbProcNo    17;
    }
    procBoundary16to18
    {
        type            processor;
        inGroups        List<word> 1(processor);
        nFaces          114;
        startFace       7442;
        matchTolerance  0.0001;
        myProcNo        16;
        neighbProcNo    18;
    }
)

// ************************************************************************* //
