/*--------------------------------*- C++ -*----------------------------------*\
  =========                 |
  \\      /  F ield         | OpenFOAM: The Open Source CFD Toolbox
   \\    /   O peration     | Website:  https://openfoam.org
    \\  /    A nd           | Version:  8
     \\/     M anipulation  |
\*---------------------------------------------------------------------------*/
/*   Windows 32 and 64 bit porting by blueCAPE: http://www.bluecape.com.pt   *\
|  Based on Windows porting (2.0.x v4) by Symscape: http://www.symscape.com   |
\*---------------------------------------------------------------------------*/
FoamFile
{
    version     2.0;
    format      ascii;
    class       polyBoundaryMesh;
    location    "constant/air/polyMesh";
    object      boundary;
}
// * * * * * * * * * * * * * * * * * * * * * * * * * * * * * * * * * * * * * //

10
(
    left
    {
        type            patch;
        nFaces          100;
        startFace       18249;
    }
    right
    {
        type            patch;
        nFaces          0;
        startFace       18349;
    }
    back
    {
        type            patch;
        nFaces          0;
        startFace       18349;
    }
    front
    {
        type            patch;
        nFaces          16;
        startFace       18349;
    }
    bottom
    {
        type            wall;
        inGroups        List<word> 1(wall);
        nFaces          209;
        startFace       18365;
    }
    top
    {
        type            patch;
        nFaces          162;
        startFace       18574;
    }
    tower
    {
        type            mappedWall;
        inGroups        List<word> 
2
(
wall
mappedPatch
)
;
        nFaces          1089;
        startFace       18736;
        sampleMode      nearestPatchFace;
        sampleRegion    tower;
        samplePatch     buildings_to_air;
    }
    procBoundary6to5
    {
        type            processor;
        inGroups        List<word> 1(processor);
        nFaces          297;
        startFace       19825;
        matchTolerance  0.0001;
        myProcNo        6;
        neighbProcNo    5;
    }
    procBoundary6to8
    {
        type            processor;
        inGroups        List<word> 1(processor);
        nFaces          35;
        startFace       20122;
        matchTolerance  0.0001;
        myProcNo        6;
        neighbProcNo    8;
    }
    procBoundary6to9
    {
        type            processor;
        inGroups        List<word> 1(processor);
        nFaces          294;
        startFace       20157;
        matchTolerance  0.0001;
        myProcNo        6;
        neighbProcNo    9;
    }
)

// ************************************************************************* //
