/*--------------------------------*- C++ -*----------------------------------*\
  =========                 |
  \\      /  F ield         | OpenFOAM: The Open Source CFD Toolbox
   \\    /   O peration     | Website:  https://openfoam.org
    \\  /    A nd           | Version:  8
     \\/     M anipulation  |
\*---------------------------------------------------------------------------*/
/*   Windows 32 and 64 bit porting by blueCAPE: http://www.bluecape.com.pt   *\
|  Based on Windows porting (2.0.x v4) by Symscape: http://www.symscape.com   |
\*---------------------------------------------------------------------------*/
FoamFile
{
    version     2.0;
    format      ascii;
    class       scalarListList;
    location    "constant/air";
    object      divqrsw;
}
// * * * * * * * * * * * * * * * * * * * * * * * * * * * * * * * * * * * * * //


5
(

6080
(
0
0
0
0
0
0
0
0
0
0
0
0
0
0
0
0
0
0
0
0
0
0
0
0
0
0
0
0
0
0
0
0
0
0
0
0
0
0
0
0
0
0
0
0
0
0
0
0
0
0
0
0
0
0
0
0
0
0
0
0
0
0
0
0
0
0
0
0
0
0
0
0
0
0
0
0
0
0
0
0
0
0
0
-65.892685
0
-122.96364
0
-167.06595
0
0
0
0
-77.621363
0
0
-146.32703
-182.31521
0
0
0
0
0
-162.58494
0
0
0
0
0
0
0
0
0
0
0
0
0
0
-118.75751
0
0
-129.47964
0
0
0
0
0
0
0
0
0
0
0
0
0
0
0
0
0
0
0
0
0
0
0
0
0
0
0
0
0
0
0
0
0
0
0
0
0
0
0
0
0
0
0
0
0
0
0
0
0
0
0
0
0
0
0
0
0
0
0
0
0
0
0
0
0
0
0
0
0
0
0
0
0
0
0
0
0
0
0
0
0
0
0
0
0
0
0
0
0
0
0
0
0
0
0
0
0
-171.82989
0
0
0
0
0
0
0
0
0
0
0
0
0
0
0
0
0
0
0
0
0
0
0
0
0
0
0
0
0
0
0
0
0
0
0
0
0
0
0
0
0
0
0
0
0
0
0
0
0
0
0
0
0
0
0
0
0
0
0
0
0
0
0
0
0
0
0
0
0
0
0
0
0
0
0
0
0
0
0
0
0
0
0
0
0
0
0
0
0
0
0
0
0
0
0
0
0
0
0
0
0
0
0
0
0
0
0
0
0
0
0
0
0
0
0
0
0
0
0
0
0
0
0
0
0
0
0
0
0
0
0
0
0
0
0
0
0
0
0
0
0
0
0
0
0
0
0
0
0
0
0
0
0
0
0
0
0
0
0
0
0
0
0
0
0
0
0
0
0
0
0
0
0
0
0
0
0
0
0
0
0
0
0
0
0
0
0
0
0
0
0
0
0
0
0
0
0
0
0
0
0
0
0
0
0
0
0
0
0
0
0
0
0
0
0
0
0
0
0
0
0
0
0
0
0
0
0
0
0
0
0
0
0
0
0
0
0
0
0
0
0
0
0
0
0
0
0
0
0
0
-89.178362
-171.86441
-143.09519
-124.39857
0
0
0
-73.16848
0
-91.583198
0
0
0
0
0
0
0
0
0
0
-163.56817
-183.89278
-146.27718
-160.30997
0
0
0
-149.0134
0
-119.63063
0
0
0
0
0
0
0
0
0
0
0
0
0
0
0
0
0
0
0
0
0
0
0
0
0
0
0
0
0
0
0
0
0
0
0
0
0
0
0
0
0
0
0
0
0
0
0
0
0
0
0
0
0
0
0
0
0
0
0
0
0
0
0
0
0
0
0
0
0
0
0
0
0
0
0
0
0
0
0
0
0
0
0
0
0
0
0
0
0
0
0
0
0
0
0
0
0
0
0
0
0
0
0
0
0
0
0
0
0
0
0
0
0
0
0
0
0
0
0
0
0
0
0
0
0
0
0
0
0
0
0
0
0
0
0
0
0
0
0
0
0
0
0
0
0
0
0
0
0
0
0
0
0
0
0
0
0
0
0
0
0
0
0
0
0
0
0
0
0
0
0
0
0
0
0
0
0
0
0
0
0
0
0
0
0
0
0
0
0
0
0
0
0
0
0
0
0
0
0
0
0
0
0
0
0
0
0
0
0
0
0
0
0
0
0
0
0
0
0
0
0
0
0
0
0
0
0
0
0
0
0
0
0
0
0
0
0
0
0
0
0
0
0
0
0
0
0
0
0
0
0
0
0
0
0
0
0
0
0
0
0
0
0
0
0
0
0
0
0
0
0
0
0
0
0
0
0
0
0
0
0
0
0
0
0
0
0
0
0
0
0
0
0
0
0
0
0
0
0
0
0
0
0
0
0
0
0
0
0
0
0
0
0
0
0
0
0
0
0
0
0
0
0
0
0
0
0
0
0
0
0
0
0
0
0
0
0
0
0
0
0
0
0
0
-74.69137
0
-41.589262
0
-61.235083
-42.25195
0
-148.23244
0
0
-108.24656
-156.86756
0
-99.047737
0
0
0
0
0
0
0
0
0
0
0
0
0
0
0
0
0
0
0
0
0
0
0
0
0
0
0
0
0
0
0
0
0
0
0
0
0
0
0
0
0
0
0
0
0
0
0
0
0
0
0
0
0
0
0
0
0
0
0
0
0
0
0
0
0
0
0
0
0
0
0
0
0
0
0
0
0
0
0
0
0
0
0
0
0
0
0
0
0
0
0
0
0
0
0
0
0
0
0
-91.384988
0
0
-102.10355
0
0
0
0
-150.75619
0
0
0
0
0
0
0
0
-103.39872
0
-159.02654
0
0
0
0
0
-121.96725
-171.97013
0
0
0
0
0
0
-141.74132
0
0
0
0
0
0
0
0
0
0
0
0
0
0
0
0
0
0
0
0
0
0
0
0
-47.63729
-54.891392
-37.341912
-80.83729
-111.33679
-93.434604
-99.098278
0
0
0
-63.497723
0
0
0
-89.480536
-59.178062
-107.75029
-137.69962
-75.752461
-134.47115
-58.854192
-85.750906
0
-89.275753
0
-70.410479
-102.90348
0
-101.16684
-172.79784
-133.57451
-110.83817
-85.765888
-145.5802
-124.55263
0
0
0
-78.555098
-132.08884
-133.29675
-49.43857
0
0
0
0
-81.837926
-58.034864
-65.846327
-115.93604
-125.5303
-129.65455
-106.48715
-162.83706
0
-120.49673
0
-167.43161
-129.95677
0
0
0
0
-135.77806
0
0
-90.026681
-167.80189
-149.94983
-161.9749
-164.24283
-179.96319
-151.86966
-139.65502
-175.20085
-187.14032
-146.77216
-176.98069
-186.21535
-155.63817
-160.51484
0
0
0
-156.5281
-161.17042
-153.29486
-128.4314
0
0
0
0
-173.69667
0
-133.54882
0
0
0
0
0
0
0
0
0
0
0
0
0
-96.191063
0
0
-108.84765
0
0
0
0
0
0
-175.82918
0
-118.59085
0
0
-132.95187
0
0
0
0
0
0
0
0
0
0
0
0
0
0
0
0
0
0
0
0
0
0
0
0
0
0
0
0
0
0
0
0
0
0
0
0
0
0
0
0
0
0
0
0
0
0
0
0
0
0
0
0
0
0
0
0
0
-56.999152
0
-130.44004
0
0
0
0
0
0
0
0
0
0
0
-122.6595
0
0
0
0
0
0
0
0
0
0
0
0
0
0
0
0
-112.44715
0
-147.63788
0
-106.97055
0
0
0
0
0
0
0
0
0
-143.16923
0
0
0
0
0
0
0
0
0
0
0
0
0
0
0
0
0
0
0
0
0
0
0
0
0
0
0
0
0
0
0
0
0
0
0
0
0
0
0
0
0
0
0
0
0
0
0
0
0
0
0
0
0
0
0
0
0
0
0
0
0
0
0
0
0
0
0
0
0
0
0
0
0
0
0
0
0
0
0
0
0
0
0
0
0
0
0
0
0
0
0
0
0
0
0
0
0
0
0
0
0
0
0
0
0
0
0
0
0
0
0
0
0
0
0
0
0
0
0
0
0
0
-181.07409
0
-129.7881
0
0
0
0
0
0
0
-95.639961
0
-106.48565
0
0
0
0
0
0
0
0
0
0
0
0
0
0
-185.15777
-125.36561
0
-138.36577
0
0
0
0
0
0
0
-97.965611
0
0
0
0
0
0
0
0
0
0
0
0
0
0
0
0
0
0
0
0
0
0
0
0
0
0
0
0
0
0
0
0
0
0
0
0
0
0
0
0
0
0
0
0
0
0
0
0
0
0
0
0
0
0
0
0
0
0
0
0
0
0
0
0
0
0
0
0
0
0
0
0
0
0
0
0
0
0
0
0
0
0
0
0
0
0
0
0
0
0
0
0
0
0
0
0
0
0
0
0
0
0
0
0
0
0
0
0
0
0
0
0
0
0
0
0
0
0
0
0
0
0
0
0
0
0
0
0
0
0
0
0
0
0
0
0
0
0
0
0
0
0
0
0
0
0
0
0
0
0
0
0
0
0
0
0
0
0
0
0
0
0
0
0
0
0
0
0
0
0
0
0
0
0
0
0
0
0
0
0
0
0
0
0
0
0
0
0
0
0
0
0
0
0
0
0
0
0
0
0
0
0
0
0
0
0
0
0
0
0
0
0
0
0
0
0
0
0
0
0
0
0
0
0
0
0
0
0
0
0
0
0
0
0
0
0
0
0
0
0
0
0
0
0
0
0
0
0
0
0
0
0
0
0
0
0
0
0
0
0
0
0
0
0
0
0
0
0
0
0
0
0
0
0
0
0
0
0
0
0
0
0
0
0
0
0
0
0
0
0
0
0
0
0
0
0
0
0
0
0
0
0
0
0
0
0
0
0
0
0
0
0
0
0
0
0
0
0
0
0
0
0
0
0
0
0
0
0
0
0
0
0
0
0
0
0
0
0
0
0
0
0
0
0
0
0
0
0
0
0
0
0
0
0
0
0
0
0
0
0
0
0
0
0
0
0
0
0
0
0
0
0
0
0
0
0
0
0
0
0
0
0
0
0
0
0
0
0
0
0
0
0
0
0
0
0
0
0
0
0
0
0
0
0
0
-22.190958
0
-14.616664
-57.37247
-53.498991
-43.956321
-68.160281
0
0
0
-65.727977
-56.470558
-48.694212
-80.322093
0
0
0
-47.332448
-30.153546
-36.143521
-38.287188
-84.751779
-60.108467
-105.92315
-102.61754
-121.42847
-71.435796
-70.90126
-123.84327
-156.25855
-166.11481
-164.8443
-155.30717
-139.06929
-142.86706
-99.752079
-98.476378
-124.44108
-157.23497
-141.509
-84.564388
-114.11186
-103.92761
-91.216676
-114.17326
-148.10155
-139.7522
-82.097163
-119.61979
0
0
0
0
0
0
0
0
0
0
0
0
0
0
0
-50.23278
-81.813263
-58.106273
-56.643626
0
-61.234072
0
0
0
0
0
0
0
0
-63.573548
-86.627974
0
-60.186649
-62.563191
0
0
0
0
0
0
0
0
-76.831035
0
-65.539744
-110.31741
-108.08445
-118.21216
-106.09463
-30.777556
0
-39.889189
-92.627908
-64.341992
-79.870543
-76.534522
0
0
-43.667413
-92.219293
-81.413908
-93.089032
-81.200685
-141.71722
-129.92253
-164.15331
-173.36485
-172.47839
-139.28985
-133.21401
-167.11584
-172.81641
-187.42176
-177.82202
-178.28309
-154.79524
-188.22984
-155.97073
-136.70091
-157.64305
-164.45532
-155.65504
-170.49937
-147.30328
-145.30093
-112.84109
-173.58202
-168.67767
-128.95296
-181.85092
-128.77842
0
0
0
0
-88.650522
0
-94.911933
0
0
0
0
0
0
0
0
0
0
0
-76.99115
-90.588521
0
-101.86251
-121.42862
-156.62321
-108.3673
-134.28342
-116.73306
-89.790889
0
0
0
0
0
-66.917377
0
-94.619554
-109.55538
-139.92756
-83.61578
-75.745208
-127.64234
-104.37229
0
0
-66.457001
0
-71.784754
0
0
0
0
0
0
0
0
0
0
0
0
0
0
0
0
0
0
0
0
0
0
0
0
0
0
0
0
0
0
0
0
0
0
0
0
0
0
0
0
0
0
0
0
0
0
0
0
0
0
0
0
0
0
0
0
0
0
0
0
0
0
0
0
0
0
0
0
0
0
0
0
0
0
0
0
0
0
0
0
0
0
0
0
0
0
0
0
0
0
0
0
0
0
0
0
0
0
0
0
0
0
0
0
0
0
0
0
0
0
0
0
0
0
0
0
-57.713302
0
0
0
0
0
-57.639541
0
0
0
0
0
0
0
0
0
0
0
0
0
0
0
0
0
0
0
0
0
0
0
0
0
0
0
0
0
0
0
0
0
0
0
0
0
0
0
0
0
0
0
0
0
0
0
0
-38.164856
0
-65.828373
0
0
0
0
0
0
0
0
0
-101.18829
-147.20882
0
0
0
0
0
0
0
0
0
0
0
0
0
0
0
0
0
0
0
0
0
0
0
0
0
0
0
0
0
0
0
0
0
0
0
-104.37589
-99.394239
-123.22005
-134.43541
-100.15638
-130.01665
-105.73178
0
0
0
0
0
0
0
-145.83551
-173.52475
-166.77259
-152.87599
-147.52952
-164.16878
-159.1325
0
0
0
-35.325335
0
-49.208871
0
0
0
0
0
0
0
0
0
0
0
0
0
0
0
-76.793051
0
-46.027175
0
-67.191768
0
-52.949207
-179.33667
-163.75771
-146.31052
-163.31334
-166.8619
-156.11927
-183.44344
-205.65126
-192.34847
-198.85628
-181.90366
-197.35836
-184.3156
-209.25106
0
0
0
-70.76922
0
-60.507385
0
0
0
-118.76177
0
-109.03375
0
0
0
0
0
0
0
0
0
-179.86833
-179.12103
-155.43119
-157.35313
-156.55463
-171.81066
-181.4899
0
0
0
0
0
0
0
0
-97.925597
0
-132.57554
0
-105.58234
0
0
0
0
0
0
0
0
0
-129.74665
0
-148.11223
0
-146.91643
-112.25236
0
0
0
0
0
0
0
0
0
0
0
0
0
0
0
0
0
0
0
0
0
0
0
0
0
0
0
0
0
0
0
0
0
0
0
0
0
0
0
0
0
0
0
0
-129.8881
0
-125.08371
0
0
0
0
0
0
0
0
0
-170.36505
-191.28797
-173.7863
-158.93095
-148.62429
-190.52734
-186.75739
0
0
0
0
0
0
0
0
0
0
0
0
0
0
0
0
0
0
0
0
0
0
0
0
0
0
0
0
0
0
0
0
0
0
0
0
0
0
0
0
0
0
0
0
0
0
0
0
0
0
0
0
0
0
0
0
0
0
0
0
0
0
0
0
0
0
0
0
0
0
0
0
0
0
0
0
0
0
0
0
0
0
0
0
0
0
0
0
0
0
0
0
0
0
0
0
0
0
0
0
0
0
0
0
0
0
0
0
0
0
0
0
0
0
0
0
0
0
0
0
0
0
0
0
0
0
0
0
0
0
0
0
0
0
0
0
0
0
0
0
0
0
0
0
0
0
0
0
0
0
0
0
0
0
0
0
0
0
0
0
0
0
0
0
0
0
0
0
0
0
0
0
0
0
0
0
0
0
0
0
0
0
0
0
0
0
0
0
0
0
0
0
0
0
0
0
0
0
0
0
0
0
0
0
0
0
0
0
0
0
0
0
0
0
0
0
0
0
0
0
0
0
0
0
0
0
0
0
0
0
0
0
0
0
0
0
0
0
0
0
0
0
0
0
0
-58.920875
-45.58151
-69.935977
-64.16571
-49.097676
-60.068223
-54.833368
0
0
0
0
0
0
0
-34.677877
0
-44.236391
-41.852284
0
-32.311632
-47.45948
0
0
-36.050584
0
0
-38.804847
0
-42.194379
-65.30595
-52.422678
-47.112757
-38.93836
-56.078285
-50.896805
-37.08729
-53.961221
0
-42.071841
0
-39.778712
-50.733627
0
0
0
0
0
-41.6694
0
-112.06578
-112.80433
-160.57395
-137.43761
-124.16364
-101.93228
-149.13704
-70.36381
0
-73.966736
0
0
-69.828913
-77.896871
-54.829078
0
0
0
0
0
0
-100.24652
-71.478722
-139.65301
-114.44573
-72.964917
-98.903422
-145.81723
-118.78909
-166.83157
-122.28063
-148.61073
-115.96846
-129.11635
-156.06578
-68.244339
-67.153768
0
0
0
-76.020212
-60.556546
-94.406262
-126.2889
0
-108.3358
-68.568426
-85.019609
-138.0317
0
0
0
0
0
0
0
0
0
0
0
0
0
0
0
0
0
0
0
0
0
0
0
0
0
0
0
0
0
0
0
0
0
0
0
0
0
0
0
0
0
0
0
0
0
-80.965296
0
0
0
0
0
0
0
0
0
0
0
0
0
0
0
0
0
0
0
0
0
0
0
0
0
0
0
0
0
0
0
0
0
0
0
0
0
0
0
0
0
0
-100.71392
0
0
0
0
0
0
0
0
0
0
0
0
0
0
0
0
0
0
0
0
0
0
0
0
0
-79.791921
0
0
0
0
0
0
0
0
0
0
0
0
-107.5239
0
0
0
0
0
0
0
0
0
0
0
0
0
0
0
0
0
0
0
0
0
0
0
0
0
0
0
0
0
0
0
0
0
0
0
0
0
0
0
0
0
-52.568091
-136.59099
-81.128723
0
0
0
-105.38943
0
-87.284201
-76.909137
0
0
0
0
-150.25158
-105.16535
-93.322035
-79.710277
-95.856083
-113.47672
0
0
0
0
0
0
0
0
0
0
0
0
0
0
0
0
0
0
0
0
0
0
0
0
0
0
0
0
0
0
-103.39247
-154.01064
0
0
0
0
-138.06118
-157.22738
-173.50562
-101.3054
0
0
-115.84554
-130.64876
-166.89983
-179.45447
-103.64829
-98.112157
0
-117.77916
0
0
0
0
0
0
0
0
0
0
0
0
0
0
0
0
0
0
0
0
0
0
0
0
0
0
0
0
0
0
0
0
0
0
0
0
-88.013738
0
0
0
0
0
0
-103.39267
0
0
0
0
0
0
0
0
0
0
0
0
0
0
0
0
0
0
0
0
0
0
0
0
0
0
0
0
0
0
0
0
0
0
0
0
0
0
0
0
0
0
0
0
0
0
0
0
0
0
0
0
0
0
-43.642673
-49.477898
0
0
-54.310681
-41.307877
-37.29524
0
0
0
0
0
0
0
0
0
-45.365167
0
0
0
0
0
0
0
0
0
0
0
-104.31273
-87.742004
-84.164725
-78.297145
-73.71957
-99.039413
-92.760508
-81.035205
-77.303106
-60.580554
-59.800765
-63.069802
-78.023017
-79.637963
-107.12962
-135.89349
-137.29049
-106.07623
-109.99892
-133.55359
-105.77095
-82.73955
-78.944323
-66.131058
-91.914772
-69.225003
-80.448515
-93.699364
-119.3996
-106.65112
-128.95256
-134.77376
-114.17609
-111.76248
-129.43692
-83.581984
-68.486081
-59.357014
-77.727085
-65.810972
-86.154416
-78.413873
-94.237454
-69.279893
-73.102161
-68.117431
-80.241975
-64.525999
-88.116164
-43.846566
0
-41.186319
0
-44.345925
-41.31101
0
-66.598106
-67.368381
-83.129933
-93.35688
-62.709016
-87.290722
-70.751415
0
0
0
0
0
0
0
-63.476312
-74.892909
-55.583306
-77.774977
-59.962741
-59.126462
-82.345507
-98.02367
-78.591906
-75.375981
-70.793948
-97.945453
-92.465098
-74.457412
0
0
0
-46.575673
0
-47.722143
0
-115.91609
-112.20985
-126.62053
-121.59265
-95.041791
-110.57934
-105.88443
-165.87297
-163.76368
-152.25232
-149.09572
-173.34144
-165.21848
-161.60466
-127.00449
-132.32882
-103.34341
-115.7773
-125.54235
-106.84289
-138.13897
-130.90269
-155.63792
-141.53491
-137.4069
-141.70269
-126.03719
-153.43726
-117.66978
-144.87063
-135.59038
-131.34066
-120.17546
-112.28075
-141.54064
0
0
-49.467334
0
-39.968654
-37.103669
-49.310777
0
0
0
0
0
0
0
0
0
-26.263383
0
-32.206307
-28.051531
0
-52.859956
-95.188207
-64.129638
-56.699661
-68.295997
-45.790676
-84.359315
-69.690874
-91.109301
-133.83015
-96.894887
-102.47985
-92.395021
-65.83836
-91.630829
-113.62598
-77.203795
-72.206469
-133.38792
-106.04105
-92.183165
-51.771556
0
-58.894211
-67.892062
-39.38067
-77.00486
-45.663026
-172.24295
-120.91787
-130.1342
-144.19865
-176.36559
-134.21202
-187.22833
-88.521011
0
-77.160029
0
-84.172095
-79.182557
0
-120.2537
-83.882912
-146.91923
-135.46457
-107.61638
-163.48005
-94.235345
-51.880362
0
-74.534594
-82.470746
0
0
-58.166813
-144.87161
-181.77239
-127.59415
-168.52774
-138.13794
-131.56851
-187.74519
-152.64222
-91.766371
-114.57956
-125.03819
-140.60507
-165.56804
-100.26305
-74.641804
0
-80.890709
-90.681471
0
-83.570059
0
0
0
0
0
0
0
0
0
0
0
0
0
0
0
-110.17058
-100.68874
-83.314492
0
-125.80502
-91.757749
-101.31021
0
0
0
0
0
0
0
0
-61.189295
0
0
0
0
0
0
0
-114.8409
0
-76.237004
-91.214408
0
-181.59231
-194.90067
-178.83711
-164.07004
-175.48162
-190.45055
-184.65333
-200.97308
-167.33672
-175.40668
-160.95836
-186.31596
-185.53987
-185.63614
-176.47511
-164.15232
-158.59388
-175.54923
-157.74285
-172.85315
-179.86678
-201.58834
-187.20488
-176.34463
-197.4216
-184.51313
-192.2183
-198.90877
-172.06436
-174.65914
-149.64932
-154.45993
-152.90406
-174.42782
-171.68304
-193.67788
-163.91336
-151.16327
-169.23249
-176.25684
-185.6331
-177.71378
-175.08627
-181.90033
-181.49854
-190.22877
-186.41048
-185.66194
-190.03089
-195.85057
-180.42235
-196.31441
-201.87636
-189.95213
-182.58472
-204.07235
-192.59373
-171.58148
-164.37769
-162.16908
-183.424
-178.27988
-183.69443
-167.76673
-173.1254
-179.36897
-188.0106
-164.84436
-177.5478
-181.71146
-177.29831
-170.25347
-186.70601
-190.92683
-160.04791
-171.21588
-180.33398
0
0
-61.225048
0
-73.894094
-72.054735
-60.644074
0
0
0
-79.049441
0
0
0
0
0
-76.906482
0
-79.549466
-78.730344
-73.507125
-123.63205
-172.36683
-131.44491
-131.54334
-152.59996
-119.46684
-174.2175
-122.24784
-111.31955
-157.18418
-170.17446
-109.16923
-168.47806
-121.58418
-107.67584
-168.91209
-124.87431
-123.07092
-154.61255
-107.98322
-167.94143
-133.60256
0
-151.69209
-160.20928
-117.50745
-176.8401
-119.82337
0
0
0
0
-90.765416
0
0
0
0
0
0
0
0
0
-162.85179
-171.17827
-153.26107
-157.59019
-172.71518
-174.82877
-162.89492
0
0
0
0
0
0
0
-98.474259
-158.12492
-131.88768
0
0
-165.86306
0
0
0
0
0
0
0
0
0
0
0
0
0
0
0
0
0
0
0
0
0
0
0
0
0
-100.54627
0
0
0
0
0
0
0
0
0
0
0
0
0
0
0
0
0
0
0
0
-104.49378
0
0
0
0
0
0
0
0
0
0
-171.67414
-178.42188
-177.63138
-175.91552
-171.87703
-176.74722
-178.8373
0
0
0
0
0
0
-163.22252
-156.98079
-138.91478
-107.94906
-125.9363
-139.05872
-150.49027
-117.18476
0
0
0
0
0
0
0
0
0
0
0
0
0
-161.00307
-155.64596
-160.02971
-124.3349
-129.42371
-153.08719
-163.0044
-120.74234
0
0
0
0
0
0
0
0
0
0
0
0
0
0
0
0
0
0
0
0
0
0
0
0
0
0
0
0
0
0
0
0
0
0
0
0
0
0
0
0
0
0
0
-76.128218
0
-55.462725
0
0
-77.649715
0
0
0
0
0
0
0
0
-131.24651
-100.00996
0
-102.58301
0
0
0
0
0
0
0
0
0
0
0
-51.916728
-68.661786
0
-73.190326
0
0
0
0
0
0
0
0
0
0
0
0
0
0
0
0
0
-89.391707
0
0
0
0
0
0
0
0
0
0
0
0
0
0
0
0
0
0
0
0
0
0
0
0
0
0
0
0
0
0
0
0
0
-124.78132
0
-123.35266
0
0
-141.04761
0
0
0
0
0
0
0
0
-148.66094
-139.36616
0
-143.37178
0
0
0
0
0
0
0
0
0
0
0
-115.75694
-129.21015
0
-135.29837
0
0
0
0
0
0
0
0
0
0
0
0
0
0
0
0
0
0
0
0
0
0
0
0
-134.91114
0
0
0
0
0
0
0
-122.79512
0
0
0
0
0
0
0
0
0
0
0
0
-99.474966
0
-112.56645
0
0
-175.06991
-172.02121
-164.18329
-147.16695
-175.30076
-170.15533
-154.52973
-121.08647
-149.8497
-141.73521
-122.65491
-106.83756
-129.94779
0
0
0
0
0
0
0
0
0
0
0
0
0
0
0
0
-61.177552
-109.15812
-72.195243
0
-69.716838
-83.951249
0
0
0
0
0
0
0
-68.457473
0
-115.29136
-82.917007
-75.339696
-89.857939
0
0
0
0
0
0
0
0
0
0
0
0
0
0
0
0
0
0
0
0
0
0
0
0
0
0
0
0
0
0
0
0
0
0
0
0
-179.84951
-169.41084
-188.86608
-180.11452
-187.67484
-184.60479
-161.94535
-142.07964
-149.74008
-141.90756
-100.32252
-124.21685
-165.24048
-116.5688
-148.39497
0
0
0
0
-178.50675
0
-157.89502
-144.52076
-146.84048
-114.81009
-165.88705
-137.23468
-122.25601
-149.42784
0
0
0
-177.222
0
0
0
0
0
0
0
0
0
0
0
0
0
0
0
0
0
0
0
0
0
0
0
0
0
0
0
0
0
0
-89.708357
0
0
0
0
0
0
0
0
0
0
0
0
0
0
0
0
0
0
0
0
0
0
0
0
0
0
0
0
0
0
0
0
0
0
0
0
0
0
0
0
0
0
0
0
0
0
0
0
0
0
0
0
0
0
0
0
0
0
0
0
-73.934187
0
0
0
-64.16457
0
-50.51559
0
0
-106.91643
0
0
0
-74.942908
0
-83.356267
0
0
0
0
0
0
0
-155.03727
-128.19368
-123.79348
-95.498267
-128.15139
-134.11067
-94.483907
-84.010658
-114.05412
-93.998151
-88.025498
-84.349004
-69.006544
-105.20777
0
0
0
0
0
0
0
-171.94057
-144.15486
-152.30758
-156.89955
-150.90254
-178.84611
-134.92452
0
0
-56.877633
0
0
0
0
-138.70411
-133.43274
-151.46292
-136.1196
-97.845442
-113.33596
-120.84436
-185.7584
-179.88838
-189.33208
-181.90064
-161.64619
-171.31385
-179.00101
0
0
0
0
0
0
0
0
0
0
0
0
0
0
-122.88623
-134.1353
-120.35976
-80.256926
-119.1203
-86.940318
-109.38987
0
0
0
0
0
0
0
0
0
0
0
0
0
0
0
0
0
0
0
0
0
0
0
0
0
0
0
0
0
-45.233552
-33.281361
0
0
0
-46.287989
0
0
0
0
0
0
0
-55.253927
-50.032968
-40.961596
-43.451178
-70.227205
-57.937887
-53.379844
0
-74.423061
0
0
-60.467032
0
0
0
0
0
0
0
0
0
0
0
0
0
0
0
0
0
-69.625612
-69.003587
0
0
0
-63.034922
0
-132.59131
-96.685968
-92.058158
-93.270742
0
-124.63323
-114.94332
-140.84901
-112.76872
-105.76702
-137.92544
-105.35205
-132.8332
0
-108.75891
0
0
-83.25526
-105.74736
0
0
0
0
0
0
0
0
0
0
0
0
0
-100.34215
0
0
0
0
0
0
0
0
0
0
0
0
0
0
0
-58.433721
0
0
0
0
0
0
0
0
0
0
0
0
0
0
0
0
0
0
0
0
0
0
0
0
0
0
0
0
0
0
0
0
0
0
0
0
0
0
0
0
0
0
0
0
0
0
0
0
-106.48419
0
0
0
0
0
-87.551443
0
0
0
0
0
0
0
0
0
0
0
0
0
0
0
0
0
0
0
0
0
0
0
0
0
0
0
0
0
0
0
0
0
0
0
0
0
0
0
0
0
0
0
0
0
0
0
0
0
-52.032796
0
0
0
-61.503592
0
0
0
0
0
0
0
0
0
0
0
0
0
0
0
0
0
0
0
0
0
0
0
-132.71109
-82.252349
-104.02987
-81.247632
-88.406309
0
-114.08119
0
0
0
0
0
0
0
0
0
0
0
0
0
0
0
0
0
0
0
0
0
0
-101.70603
0
0
0
-106.78502
0
0
0
0
0
0
0
-89.467619
0
0
0
0
0
0
0
0
0
0
0
0
0
0
0
0
0
0
0
0
0
-66.214863
-59.874557
-74.147179
-70.89072
-46.474589
-59.423069
-55.827333
-124.74359
-116.85424
-103.91242
-107.6003
-145.65958
-123.81125
-126.73651
-69.47102
-97.717782
-84.063015
-87.276283
-86.345262
-72.697465
-103.27872
-89.2639
-91.392334
0
-77.610073
-75.802359
-107.07766
-65.200676
-79.807256
-65.818438
0
-68.368914
-54.208213
0
-92.145734
-67.767709
0
0
0
-59.184665
0
0
-106.10552
-140.50424
-91.275674
-89.534517
-123.47544
-78.900739
-119.1854
0
0
0
0
0
0
0
-69.430419
-85.943532
-66.898319
-72.135875
-85.952691
-88.985975
0
-60.065034
-84.047939
-64.065937
-69.74997
-83.166751
-64.997279
-90.081684
0
-89.173956
0
0
0
-95.937952
0
0
0
0
0
0
0
0
0
0
0
0
-92.345706
0
0
0
0
0
0
0
0
0
-162.20436
-130.63875
-144.38104
-153.15349
-159.64299
-138.72
-171.44876
-123.90509
-105.67745
-127.84388
-130.1891
-100.19118
-108.43464
-115.47166
-111.4303
-105.16775
-125.17997
-134.14146
-100.67253
-118.90768
-113.7768
-139.77183
-107.80628
-89.777207
0
-123.91487
-121.86593
-101.06488
-150.91872
-132.53398
-123.95461
-86.078598
-108.84467
-168.48025
-120.04052
-151.61744
-152.8304
-101.3747
-120.72091
-138.02885
-110.6119
-164.01097
-129.28939
-96.343325
0
0
-111.5981
-92.768337
-105.47533
0
0
0
0
0
0
0
0
0
0
0
0
0
0
0
0
0
0
0
0
0
0
0
0
0
0
0
0
0
0
0
0
0
0
0
0
0
0
0
0
0
0
0
0
0
0
0
0
0
0
0
0
0
0
0
0
0
0
0
0
0
0
0
0
0
0
0
0
0
0
0
0
0
0
0
0
0
0
0
0
0
0
0
0
0
0
0
0
0
0
0
0
-69.624306
-69.01507
-57.739939
0
-60.507287
0
-71.931616
-128.36116
-93.7316
-78.219313
-83.971077
-58.3365
-108.61644
-116.43621
-150.24164
-117.26248
-100.3799
-141.42028
-103.22631
-132.90693
-76.841532
-110.4444
0
0
-80.429669
-102.48626
0
0
0
0
0
0
0
0
0
-63.669482
0
0
0
-83.247429
0
0
0
0
0
0
0
0
-146.96818
-164.02012
-169.20804
-152.70485
-125.29052
-152.18001
-125.77988
-145.20914
-177.35796
-164.37089
-158.07883
-165.31433
-143.4926
-179.16029
-168.33816
-196.24011
-182.76307
-173.49295
-167.88359
-160.52817
-193.22914
-143.45807
-137.1482
-97.713605
-118.86889
-131.4994
-161.40484
-105.41935
-112.43297
-75.257335
0
-75.906913
-87.957455
-102.34211
-82.682876
-123.9883
0
0
0
-124.50582
-99.863959
0
-135.3535
-153.08625
-117.11898
-97.020912
-128.79874
-156.71815
-100.59527
-158.87665
-150.49293
-174.36684
-165.72476
-114.01465
-145.74995
-136.99113
-174.46442
-185.5564
-188.59237
-186.35994
-172.76427
-177.34419
-187.74652
-168.24378
-198.64704
-187.63226
-184.1991
-174.16546
-158.60173
-201.14363
-153.77211
-141.45206
-91.358509
-126.17481
-126.88314
-170.82387
-113.11853
-152.68201
-137.15381
-98.924939
-115.05646
-140.05791
-158.09547
-109.91307
-135.97949
-88.982783
-76.685251
-83.414137
-117.46657
-108.24774
-98.377033
-159.31462
-157.69856
-120.72079
-117.50852
-159.36169
-163.15807
-116.33709
0
0
0
0
0
0
0
0
0
0
0
0
0
0
0
0
0
0
0
0
0
0
0
0
0
0
0
0
0
0
0
0
0
0
0
0
0
0
0
0
0
0
0
0
0
0
0
0
0
0
0
0
0
0
0
0
0
0
0
0
0
0
0
0
0
0
0
0
0
0
0
0
0
0
0
0
0
0
0
0
0
0
0
0
0
0
0
0
0
0
0
0
0
0
0
0
0
0
0
0
0
0
0
0
0
0
0
0
0
0
0
0
0
0
0
0
0
0
0
0
0
0
0
0
0
0
0
0
0
0
0
0
0
-118.40332
0
-107.75189
0
-89.00856
-97.505333
0
0
0
0
0
0
0
0
0
0
0
0
0
0
0
0
-94.647444
0
0
0
-85.175836
0
0
0
0
0
0
0
0
0
0
0
0
-77.498219
0
0
0
0
0
0
0
0
0
0
0
0
0
0
0
0
0
0
0
0
0
0
0
0
0
0
0
0
0
0
0
0
0
0
0
0
0
0
0
0
0
0
0
0
0
0
0
0
0
0
0
0
0
0
0
0
0
0
0
0
0
0
0
0
0
0
0
0
0
0
0
0
0
0
0
0
0
0
0
0
0
0
0
0
0
0
0
0
0
0
0
0
0
0
0
0
0
0
0
0
0
0
0
0
0
0
0
0
0
0
0
-116.44263
-89.016722
-103.87142
-96.071276
-116.33251
-105.1
-99.350557
-197.44376
-194.37937
-179.06215
-197.49798
-192.13238
-190.76418
-197.67002
0
0
0
0
0
0
0
0
0
0
0
0
0
0
0
0
0
0
0
0
0
0
0
0
0
0
0
0
0
0
0
0
0
0
0
0
0
0
0
0
0
0
0
0
0
0
0
0
0
0
0
0
0
0
0
0
0
0
0
0
0
0
0
0
0
0
0
0
0
0
0
0
0
0
0
0
0
0
0
0
0
0
0
0
0
0
0
0
0
0
0
0
0
0
0
0
0
0
0
0
0
0
0
0
0
0
0
0
0
0
0
0
0
0
0
0
0
0
0
0
0
0
0
0
0
0
0
0
0
0
0
0
0
0
0
0
0
0
0
0
0
0
0
0
0
0
0
0
0
0
0
0
0
0
0
0
0
0
0
0
0
0
0
0
0
0
0
0
0
0
0
0
0
0
0
0
0
0
0
0
0
0
0
0
0
0
0
0
0
0
0
0
0
0
0
0
0
0
0
0
0
0
0
0
0
0
0
0
0
0
0
0
0
0
0
0
0
0
0
0
0
0
0
0
0
0
0
0
0
0
0
0
0
0
0
0
0
0
0
0
0
0
0
0
0
0
0
0
0
0
0
0
0
0
0
0
0
0
0
0
0
0
0
0
0
0
0
0
0
0
0
0
0
0
0
0
0
0
0
0
0
0
0
0
0
0
0
0
0
0
0
0
0
0
0
0
0
0
0
0
0
0
0
0
0
0
0
0
0
0
0
0
0
0
0
0
0
0
0
0
0
0
0
0
0
0
0
0
0
0
0
0
0
0
0
0
0
0
0
0
0
0
0
0
0
0
0
0
0
0
0
0
0
0
0
0
0
0
0
0
0
0
0
0
0
0
0
0
0
0
0
0
0
0
0
0
0
0
0
0
0
0
0
0
0
0
0
0
0
0
0
0
0
0
0
0
0
0
0
0
0
0
0
0
0
0
0
0
0
0
0
0
0
0
0
0
0
0
0
0
0
0
0
0
0
0
0
0
0
0
0
0
0
0
0
0
0
0
0
0
0
0
0
0
0
0
0
0
0
0
0
0
0
0
0
0
0
0
0
0
0
0
0
0
0
0
0
0
0
0
0
0
0
0
0
0
0
0
0
0
0
0
0
0
0
0
0
0
0
0
0
0
0
0
0
0
0
0
0
0
0
0
0
0
0
0
0
0
0
0
0
0
0
0
0
0
0
0
0
0
0
0
0
0
0
0
0
0
0
0
0
0
0
0
0
0
0
0
0
0
0
0
0
0
0
0
0
0
0
0
0
0
0
0
0
0
0
0
0
0
0
0
0
0
0
0
0
0
0
0
0
0
0
0
0
0
0
0
0
0
0
0
0
0
0
0
0
0
0
0
0
0
0
0
0
0
0
0
0
0
0
0
0
0
0
0
0
0
0
0
0
0
0
0
0
0
0
0
0
0
0
0
0
0
0
0
0
0
0
0
0
0
0
0
0
0
0
0
0
0
0
0
0
0
0
0
0
0
0
0
0
0
0
0
0
0
0
0
0
0
0
0
0
0
0
0
0
0
0
0
0
0
0
0
0
0
0
0
0
0
0
0
0
0
0
0
0
0
0
0
0
0
0
0
0
0
0
0
0
0
0
0
0
0
0
0
0
0
0
0
0
0
0
0
0
0
0
0
0
0
0
0
0
0
0
0
0
0
0
0
0
0
0
0
0
0
0
0
0
0
0
0
0
0
0
0
0
0
0
0
0
0
0
0
0
0
0
0
0
0
0
0
0
0
0
0
0
0
0
0
0
0
0
0
0
0
0
0
0
0
0
0
0
0
0
0
0
0
0
0
0
0
0
0
0
0
0
0
0
0
0
0
0
0
0
0
0
0
0
0
0
0
0
0
0
0
0
0
0
0
0
0
0
0
0
0
0
0
0
0
0
0
0
0
0
0
0
0
0
0
0
0
0
0
0
0
0
0
0
0
0
0
0
0
0
0
0
0
0
0
0
0
0
0
0
0
0
0
0
0
0
0
0
0
0
0
0
0
0
0
0
0
0
0
0
0
0
0
0
0
0
0
0
0
0
0
0
0
0
0
0
0
0
0
0
0
0
0
0
0
0
0
0
0
0
0
0
0
0
0
0
0
0
0
0
0
0
0
0
0
0
0
0
0
0
)


6080
(
0
0
0
0
0
0
0
0
0
0
0
0
0
0
0
0
0
0
0
0
0
0
0
0
0
0
0
0
0
0
0
0
0
0
0
0
0
0
0
0
0
0
0
0
0
0
0
0
0
0
0
0
0
0
0
0
0
0
0
0
0
0
0
0
0
0
0
0
0
0
0
0
0
0
0
0
0
0
0
0
0
0
0
0
0
-102.02934
0
-138.5302
0
0
0
0
0
0
0
-123.22553
-150.4499
0
0
0
0
0
-136.67764
0
0
0
0
0
0
0
0
0
0
0
0
0
0
-96.813238
0
0
-108.85561
0
0
0
0
0
0
0
0
0
0
0
0
0
0
0
0
0
0
0
0
0
0
0
0
0
0
0
0
0
0
0
0
0
0
0
0
0
0
0
0
0
0
0
0
0
0
0
0
0
0
0
0
0
0
0
0
0
0
0
0
0
0
0
0
0
0
0
0
0
0
0
0
0
0
0
0
0
0
0
0
0
0
0
0
0
0
0
0
0
0
0
0
0
0
0
0
0
-143.51599
0
0
0
0
0
0
0
0
0
0
0
0
0
0
0
0
0
0
0
0
0
0
0
0
0
0
0
0
0
0
0
0
0
0
0
0
0
0
0
0
0
0
0
0
0
0
0
0
0
0
0
0
0
0
0
0
0
0
0
0
0
0
0
0
0
0
0
0
0
0
0
0
0
0
0
0
0
0
0
0
0
0
0
0
0
0
0
0
0
0
0
0
0
0
0
0
0
0
0
0
0
0
0
0
0
0
0
0
0
0
0
0
0
0
0
0
0
0
0
0
0
0
0
0
0
0
0
0
0
0
0
0
0
0
0
0
0
0
0
0
0
0
0
0
0
0
0
0
0
0
0
0
0
0
0
0
0
0
0
0
0
0
0
0
0
0
0
0
0
0
0
0
0
0
0
0
0
0
0
0
0
0
0
0
0
0
0
0
0
0
0
0
0
0
0
0
0
0
0
0
0
0
0
0
0
0
0
0
0
0
0
0
0
0
0
0
0
0
0
0
0
0
0
0
0
0
0
0
0
0
0
0
0
0
0
0
0
0
0
0
0
0
0
0
0
0
0
0
0
0
0
0
0
0
0
0
0
0
0
0
0
0
0
0
0
0
0
0
0
0
0
0
-134.20065
0
0
0
0
-134.97956
0
-109.72396
0
0
0
0
0
0
0
0
0
0
0
0
0
0
0
0
0
0
0
0
0
0
0
0
0
0
0
0
0
0
0
0
0
0
0
0
0
0
0
0
0
0
0
0
0
0
0
0
0
0
0
0
0
0
0
0
0
0
0
0
0
0
0
0
0
0
0
0
0
0
0
0
0
0
0
0
0
0
0
0
0
0
0
0
0
0
0
0
0
0
0
0
0
0
0
0
0
0
0
0
0
0
0
0
0
0
0
0
0
0
0
0
0
0
0
0
0
0
0
0
0
0
0
0
0
0
0
0
0
0
0
0
0
0
0
0
0
0
0
0
0
0
0
0
0
0
0
0
0
0
0
0
0
0
0
0
0
0
0
0
0
0
0
0
0
0
0
0
0
0
0
0
0
0
0
0
0
0
0
0
0
0
0
0
0
0
0
0
0
0
0
0
0
0
0
0
0
0
0
0
0
0
0
0
0
0
0
0
0
0
0
0
0
0
0
0
0
0
0
0
0
0
0
0
0
0
0
0
0
0
0
0
0
0
0
0
0
0
0
0
0
0
0
0
0
0
0
0
0
0
0
0
0
0
0
0
0
0
0
0
0
0
0
0
0
0
0
0
0
0
0
0
0
0
0
0
0
0
0
0
0
0
0
0
0
0
0
0
0
0
0
0
0
0
0
0
0
0
0
0
0
0
0
0
0
0
0
0
0
0
0
0
0
0
0
0
0
0
0
0
0
0
0
0
0
0
0
0
0
0
0
0
0
0
0
0
0
0
0
0
0
0
0
0
0
0
-39.045231
0
-55.314951
0
0
-130.49316
0
0
-101.50327
-141.40318
0
-89.614297
0
0
0
0
0
0
0
0
0
0
0
0
0
0
0
0
0
0
0
0
0
0
0
0
0
0
0
0
0
0
0
0
0
0
0
0
0
0
0
0
0
0
0
0
0
0
0
0
0
0
0
0
0
0
0
0
0
0
0
0
0
0
0
0
0
0
0
0
0
0
0
0
0
0
0
0
0
0
0
0
0
0
0
0
0
0
0
0
0
0
0
0
0
0
0
0
0
0
0
-83.241019
0
0
-96.192015
0
0
0
0
-135.92474
0
0
0
0
0
0
0
0
-89.089787
0
-132.14875
0
0
0
0
0
-109.32609
-145.36912
0
0
0
0
0
0
-128.74179
0
0
0
0
0
0
0
0
0
0
0
0
0
0
0
0
0
0
0
0
0
0
0
0
0
0
0
0
0
0
0
0
0
0
0
0
0
0
0
-51.728912
-98.324618
0
-65.310135
0
0
0
0
-71.720906
0
-60.660714
0
0
0
0
-115.91191
-86.15238
-71.769672
0
0
0
0
0
0
0
0
0
0
0
0
0
0
0
0
0
0
0
0
-142.91104
0
-107.30896
0
-151.60356
-116.59054
0
0
0
0
-123.04645
0
0
-82.483903
-152.8061
-133.34393
-136.74254
0
-171.04243
0
-128.48505
-159.19089
0
-138.24259
-149.04607
-178.55746
-137.14223
0
0
0
0
0
0
0
-105.40725
0
0
0
0
0
0
0
0
0
0
0
0
0
0
0
0
0
0
0
0
-76.208401
0
0
0
0
0
0
0
0
0
0
0
-91.393838
0
0
0
0
0
0
0
0
0
0
0
0
0
0
0
0
0
0
0
0
0
0
0
0
0
0
0
0
0
0
0
0
0
0
0
0
0
0
0
0
0
0
0
0
0
0
0
0
0
0
0
0
0
0
0
0
0
0
0
0
-48.032262
0
0
0
0
0
0
0
0
0
0
0
0
0
0
0
0
0
0
0
0
0
0
0
0
0
0
0
0
0
0
-97.215348
0
0
0
-99.582633
0
0
0
0
0
0
0
0
0
0
0
0
0
0
0
0
0
0
0
0
0
0
0
0
0
0
0
0
0
0
0
0
0
0
0
0
0
0
0
0
0
0
0
0
0
0
0
0
0
0
0
0
0
0
0
0
0
0
0
0
0
0
0
0
0
0
0
0
0
0
0
0
0
0
0
0
0
0
0
0
0
0
0
0
0
0
0
0
0
0
0
0
0
0
0
0
0
0
0
0
0
0
0
0
0
0
0
0
0
0
0
0
0
0
0
0
0
0
0
0
0
0
0
0
0
0
0
0
0
0
0
0
0
0
-119.53307
0
0
0
0
0
0
0
-86.474539
0
-96.913137
0
0
0
0
0
0
0
0
0
0
0
0
0
0
-164.47939
-117.68529
0
-121.20886
0
0
0
0
0
0
0
-92.302136
0
0
0
0
0
0
0
0
0
0
0
0
0
0
0
0
0
0
0
0
0
0
0
0
0
0
0
0
0
0
0
0
0
0
0
0
0
0
0
0
0
0
0
0
0
0
0
0
0
0
0
0
0
0
0
0
0
0
0
0
0
0
0
0
0
0
0
0
0
0
0
0
0
0
0
0
0
0
0
0
0
0
0
0
0
0
0
0
0
0
0
0
0
0
0
0
0
0
0
0
0
0
0
0
0
0
0
0
0
0
0
0
0
0
0
0
0
0
0
0
0
0
0
0
0
0
0
0
0
0
0
0
0
0
0
0
0
0
0
0
0
0
0
0
0
0
0
0
0
0
0
0
0
0
0
0
0
0
0
0
0
0
0
0
0
0
0
0
0
0
0
0
0
0
0
0
0
0
0
0
0
0
0
0
0
0
0
0
0
0
0
0
0
0
0
0
0
0
0
0
0
0
0
0
0
0
0
0
0
0
0
0
0
0
0
0
0
0
0
0
0
0
0
0
0
0
0
0
0
0
0
0
0
0
0
0
0
0
0
0
0
0
0
0
0
0
0
0
0
0
0
0
0
0
0
0
0
0
0
0
0
0
0
0
0
0
0
0
0
0
0
0
0
0
0
0
0
0
0
0
0
0
0
0
0
0
0
0
0
0
0
0
0
0
0
0
0
0
0
0
0
0
0
0
0
0
0
0
0
0
0
0
0
0
0
0
0
0
0
0
0
0
0
0
0
0
0
0
0
0
0
0
0
0
0
0
0
0
0
0
0
0
0
0
0
0
0
0
0
0
0
0
0
0
0
0
0
0
0
0
0
0
0
0
0
0
0
0
0
0
0
0
0
0
0
0
0
0
0
0
0
0
0
0
0
0
0
0
0
0
0
0
0
0
0
0
0
0
0
0
0
0
0
0
0
0
0
0
0
0
0
0
0
0
0
0
0
0
0
0
0
0
0
0
0
0
0
0
0
0
0
0
0
0
0
0
0
0
0
0
0
0
0
0
0
0
0
0
0
0
0
0
0
0
0
0
0
0
0
0
0
0
0
0
0
0
0
0
0
0
0
0
0
0
0
0
0
0
0
0
0
0
0
0
0
0
0
0
0
0
0
0
0
0
0
0
0
0
0
0
0
0
0
0
0
0
0
0
0
0
0
0
0
0
0
0
0
0
0
-146.95232
0
0
0
0
0
0
0
0
0
0
0
0
0
-144.26687
-155.02382
0
0
0
0
0
0
0
0
0
0
0
0
0
0
0
0
0
0
0
0
0
0
0
0
0
0
0
0
0
0
0
-89.135151
0
-139.8804
-96.950986
0
-104.69254
0
0
0
0
0
0
-53.682468
0
-82.618659
-102.54688
-126.37886
-75.767898
-68.14807
0
-91.631338
0
0
-57.262306
0
-61.000271
0
0
0
0
0
0
0
0
0
0
0
0
0
0
0
0
0
0
0
0
0
0
0
0
0
0
0
0
0
0
0
0
0
0
0
0
0
0
0
0
0
0
0
0
0
0
0
0
0
0
0
0
0
0
0
0
0
0
0
0
0
0
0
0
0
0
0
0
0
0
0
0
0
0
0
0
0
0
0
0
0
0
0
0
0
0
0
0
0
0
0
0
0
0
0
0
0
0
0
0
0
0
0
0
0
0
0
0
0
0
0
0
0
0
0
0
-51.326796
0
0
0
0
0
-51.705529
0
0
0
0
0
0
0
0
0
0
0
0
0
0
0
0
0
0
0
0
0
0
0
0
0
0
0
0
0
0
0
0
0
0
0
0
0
0
0
0
0
0
0
0
0
0
0
0
-31.412537
0
-49.924293
0
0
0
0
0
0
0
0
0
-96.564875
-132.71047
0
0
0
0
0
0
0
0
0
0
0
0
0
0
0
0
0
0
0
0
0
0
0
0
0
0
0
0
0
0
0
0
0
0
0
-94.181047
-81.714939
-103.23274
-115.27615
-84.177647
-114.11958
-94.022625
0
0
0
0
0
0
0
-122.4058
-143.24238
-136.90691
-121.61904
-118.41779
-139.46622
-129.02658
0
0
0
0
0
0
0
0
0
0
0
0
0
0
0
0
0
0
0
0
0
-69.007373
0
-44.960519
0
-61.322704
0
-51.534579
-147.18892
-137.86425
-123.22701
-137.45042
-138.43126
-134.39981
-147.71284
-168.54466
-155.3987
-164.86169
-150.21375
-164.17134
-153.68856
-170.31445
0
0
0
0
0
0
0
0
0
0
0
0
0
0
0
0
0
0
0
0
0
-142.14239
-143.76825
-132.76599
-124.63572
-127.48301
-135.55371
-142.04798
0
0
0
0
0
0
0
0
-78.450286
0
-110.21447
0
-93.036881
0
0
0
0
0
0
0
0
0
-113.6122
0
-121.4661
0
-120.43793
-91.628974
0
0
0
0
0
0
0
0
0
0
0
0
0
0
0
0
0
0
0
0
0
0
0
0
0
0
0
0
0
0
0
0
0
0
0
0
0
0
0
0
0
0
0
0
0
0
0
0
0
0
0
0
0
0
0
0
-148.55447
-150.43102
-153.33262
-134.717
-140.13587
-160.3354
-143.43644
0
0
0
0
0
0
0
0
0
0
0
0
0
0
0
0
0
0
0
0
0
0
0
0
0
0
0
0
0
0
0
0
0
0
0
0
0
0
0
0
0
0
0
0
0
0
0
0
0
0
0
0
0
0
0
0
0
0
0
0
0
0
0
0
0
0
0
0
0
0
0
0
0
0
0
0
0
0
0
0
0
0
0
0
0
0
0
0
0
0
0
0
0
0
0
0
0
0
0
0
0
0
0
0
0
0
0
0
0
0
0
0
0
0
0
0
0
0
0
0
0
0
0
0
0
0
0
0
0
0
0
0
0
0
0
0
0
0
0
0
0
0
0
0
0
0
0
0
0
0
0
0
0
0
0
0
0
0
0
0
0
0
0
0
0
0
0
0
0
0
0
0
0
0
0
0
0
0
0
0
0
0
0
0
0
0
0
0
0
0
0
0
0
0
0
0
0
0
0
0
0
0
0
0
0
0
0
0
0
0
0
0
0
0
0
0
0
0
0
0
0
0
0
0
0
0
0
0
0
0
0
0
0
0
0
0
0
0
0
0
0
0
0
0
0
0
0
0
0
0
0
0
0
0
0
0
0
0
0
0
0
-44.622925
0
0
0
0
0
0
0
0
0
0
0
0
0
-49.912666
0
0
0
0
0
0
0
0
0
0
0
0
0
0
0
0
0
0
-99.543122
-95.586671
-137.82534
-120.75362