/*--------------------------------*- C++ -*----------------------------------*\
  =========                 |
  \\      /  F ield         | OpenFOAM: The Open Source CFD Toolbox
   \\    /   O peration     | Website:  https://openfoam.org
    \\  /    A nd           | Version:  8
     \\/     M anipulation  |
\*---------------------------------------------------------------------------*/
/*   Windows 32 and 64 bit porting by blueCAPE: http://www.bluecape.com.pt   *\
|  Based on Windows porting (2.0.x v4) by Symscape: http://www.symscape.com   |
\*---------------------------------------------------------------------------*/
FoamFile
{
    version     2.0;
    format      ascii;
    class       polyBoundaryMesh;
    location    "constant/air/polyMesh";
    object      boundary;
}
// * * * * * * * * * * * * * * * * * * * * * * * * * * * * * * * * * * * * * //

11
(
    left
    {
        type            patch;
        nFaces          0;
        startFace       18230;
    }
    right
    {
        type            patch;
        nFaces          0;
        startFace       18230;
    }
    back
    {
        type            patch;
        nFaces          0;
        startFace       18230;
    }
    front
    {
        type            patch;
        nFaces          0;
        startFace       18230;
    }
    bottom
    {
        type            wall;
        inGroups        List<word> 1(wall);
        nFaces          226;
        startFace       18230;
    }
    top
    {
        type            patch;
        nFaces          53;
        startFace       18456;
    }
    tower
    {
        type            mappedWall;
        inGroups        List<word> 
2
(
wall
mappedPatch
)
;
        nFaces          627;
        startFace       18509;
        sampleMode      nearestPatchFace;
        sampleRegion    tower;
        samplePatch     buildings_to_air;
    }
    procBoundary16to14
    {
        type            processor;
        inGroups        List<word> 1(processor);
        nFaces          360;
        startFace       19136;
        matchTolerance  0.0001;
        myProcNo        16;
        neighbProcNo    14;
    }
    procBoundary16to15
    {
        type            processor;
        inGroups        List<word> 1(processor);
        nFaces          400;
        startFace       19496;
        matchTolerance  0.0001;
        myProcNo        16;
        neighbProcNo    15;
    }
    procBoundary16to17
    {
        type            processor;
        inGroups        List<word> 1(processor);
        nFaces          139;
        startFace       19896;
        matchTolerance  0.0001;
        myProcNo        16;
        neighbProcNo    17;
    }
    procBoundary16to19
    {
        type            processor;
        inGroups        List<word> 1(processor);
        nFaces          7;
        startFace       20035;
        matchTolerance  0.0001;
        myProcNo        16;
        neighbProcNo    19;
    }
)

// ************************************************************************* //
