/*--------------------------------*- C++ -*----------------------------------*\
  =========                 |
  \\      /  F ield         | OpenFOAM: The Open Source CFD Toolbox
   \\    /   O peration     | Website:  https://openfoam.org
    \\  /    A nd           | Version:  8
     \\/     M anipulation  |
\*---------------------------------------------------------------------------*/
/*   Windows 32 and 64 bit porting by blueCAPE: http://www.bluecape.com.pt   *\
|  Based on Windows porting (2.0.x v4) by Symscape: http://www.symscape.com   |
\*---------------------------------------------------------------------------*/
FoamFile
{
    version     2.0;
    format      ascii;
    class       scalarListList;
    location    "constant/air";
    object      divqrsw;
}
// * * * * * * * * * * * * * * * * * * * * * * * * * * * * * * * * * * * * * //


5
(

5973
(
0
0
0
0
0
0
0
0
0
0
0
0
0
0
0
0
0
0
0
0
0
0
0
0
0
0
0
0
0
0
0
0
0
0
0
0
0
0
0
0
0
0
0
0
0
0
0
0
0
0
0
0
0
0
0
0
0
0
0
0
0
0
0
0
0
0
0
0
0
0
0
0
0
0
0
0
0
0
0
0
0
0
0
0
0
0
0
0
0
0
0
0
0
0
0
0
0
0
-160.35509
0
0
0
0
0
0
-172.40094
0
0
0
0
0
0
-148.09966
0
0
0
0
0
0
0
0
0
0
0
0
0
0
0
0
0
0
0
0
0
0
0
0
0
0
0
0
0
0
0
0
0
0
0
0
0
0
0
0
0
0
0
0
0
0
0
0
0
0
0
0
0
0
0
0
0
0
0
0
0
0
0
0
0
0
0
0
0
0
0
0
-184.41877
0
0
0
0
0
0
0
0
0
0
0
0
0
0
0
0
0
0
0
0
0
0
0
0
0
0
0
0
0
0
0
0
0
0
0
0
0
0
0
0
0
0
0
0
0
0
0
0
0
0
0
0
0
0
0
0
0
0
0
0
0
0
0
0
0
0
0
0
0
0
0
0
0
0
0
0
0
0
0
0
0
0
0
0
0
0
0
0
0
0
0
0
0
0
0
0
0
0
0
0
0
0
0
0
0
0
0
0
0
0
0
0
0
0
0
0
0
0
0
0
0
0
0
0
0
0
0
0
0
0
0
0
0
0
0
0
0
0
0
0
0
0
0
0
0
0
0
0
0
0
0
0
0
0
0
0
0
0
0
0
0
0
0
0
0
0
0
0
0
0
0
0
0
0
0
0
0
0
0
0
0
0
0
0
0
0
0
0
0
0
0
0
0
0
0
0
0
0
0
0
0
0
0
0
0
0
0
0
0
0
0
0
0
0
0
0
0
0
0
0
0
0
0
0
0
0
0
0
0
0
0
0
0
0
0
0
0
0
0
0
0
0
0
0
0
0
0
0
0
0
0
0
0
0
0
0
0
0
0
0
0
0
0
0
0
0
0
0
0
0
0
0
0
0
0
0
0
0
0
0
0
0
0
0
0
0
0
0
0
0
0
0
0
0
0
0
0
0
0
0
-57.721802
0
0
-154.47284
0
0
0
0
-64.815344
0
-179.0343
0
0
0
0
0
0
0
0
0
0
0
0
0
0
0
0
0
0
0
0
0
0
0
0
-53.678623
0
-124.72164
0
0
-102.8332
0
0
-61.138463
-173.34885
0
0
0
0
0
0
0
0
0
0
0
0
0
0
0
0
0
0
0
0
0
0
0
0
0
0
0
0
0
0
0
0
0
0
0
0
0
0
0
0
0
0
0
0
0
0
0
0
0
0
0
0
0
0
0
0
0
0
0
0
0
0
0
0
0
0
0
0
0
0
0
0
0
0
0
0
0
0
0
0
0
0
0
0
0
0
0
0
0
0
0
0
0
0
0
0
0
0
0
0
0
0
0
0
0
0
0
0
0
0
0
0
0
0
0
0
0
0
0
0
0
0
0
0
0
0
0
0
0
0
0
0
0
0
0
0
0
0
0
0
0
0
0
0
0
0
0
0
0
0
0
0
0
0
0
0
0
0
0
0
0
0
0
0
0
0
0
0
0
0
0
0
0
0
0
0
0
0
0
0
0
0
0
0
0
0
0
0
0
0
0
0
0
0
0
0
0
0
0
0
0
0
0
-80.537758
0
0
0
0
0
-94.840104
-112.01742
-96.51806
0
0
0
0
0
0
0
0
0
0
0
0
0
0
0
0
0
0
0
0
0
0
0
0
0
0
0
0
0
0
0
0
0
-135.3543
0
-179.58106
0
-69.288652
0
0
-177.74516
0
0
-195.82383
0
0
-99.147507
-144.33163
-197.88476
-98.187913
-194.45079
-79.991184
0
0
0
0
-162.00979
0
0
0
0
0
0
0
0
0
0
0
0
0
0
0
0
0
0
0
0
0
0
0
0
0
-105.39268
0
-55.176195
-55.513855
0
0
0
-69.377683
0
0
-53.865419
0
0
-87.690004
-115.94505
-87.417535
0
-64.633068
-65.280462
0
0
0
0
-45.913251
0
0
0
0
0
0
0
0
0
0
0
0
0
0
0
0
0
0
0
0
0
0
0
0
0
0
0
0
0
0
0
0
0
0
0
0
0
0
0
0
0
0
0
0
0
0
0
0
0
0
0
0
0
0
0
0
0
0
0
0
0
0
0
0
0
0
0
0
0
0
0
0
0
0
0
0
0
0
0
0
0
0
0
0
0
0
0
0
0
0
0
0
0
0
0
0
0
0
0
0
0
0
0
0
0
0
0
0
0
0
0
0
0
0
0
0
0
0
0
0
0
0
0
0
0
0
0
0
0
0
0
0
0
0
0
0
0
0
0
0
0
0
0
0
0
0
0
0
0
0
0
0
0
0
0
0
0
0
0
0
0
0
0
0
0
0
0
0
0
0
0
0
0
0
0
-158.06116
0
0
0
0
0
-104.8837
-118.33098
-188.78744
0
-92.269686
0
0
0
0
0
0
0
0
0
0
0
0
0
0
0
0
0
0
0
0
0
0
0
0
0
0
0
0
0
0
0
0
0
0
0
0
0
0
0
0
0
0
0
0
0
0
0
0
0
0
0
0
0
0
0
0
0
0
0
0
0
0
0
0
0
0
0
0
0
0
0
0
0
0
0
0
0
0
0
0
0
0
0
0
0
0
0
0
0
0
0
0
0
0
0
0
0
0
0
0
0
0
0
0
0
0
0
0
0
0
0
0
0
0
0
0
0
0
0
0
0
0
0
0
0
0
0
0
0
0
0
0
0
0
0
0
0
0
0
0
0
0
0
0
0
0
0
0
0
0
0
0
0
0
0
0
0
0
0
0
0
0
0
0
0
0
0
0
0
0
0
0
0
0
0
0
0
0
0
0
0
0
0
0
0
0
0
0
0
0
0
0
0
0
0
0
0
0
0
0
0
0
0
0
0
0
0
0
0
0
0
0
0
0
0
0
0
0
0
0
0
0
0
0
0
0
0
0
0
0
0
0
0
0
0
0
0
0
0
0
0
0
0
0
0
0
0
0
0
0
0
0
0
0
0
0
0
0
0
0
0
0
0
0
0
0
0
0
0
0
0
0
0
0
0
0
0
0
0
0
0
0
0
0
0
0
0
0
0
0
0
0
0
0
0
0
0
0
0
0
0
0
0
0
0
0
0
0
0
0
0
0
0
0
0
0
0
0
0
0
0
0
0
0
0
0
0
0
0
0
0
0
0
0
0
0
0
0
0
0
0
0
0
0
0
0
0
0
0
0
0
0
0
0
0
0
0
0
0
0
0
0
0
0
0
0
0
0
0
0
0
0
0
0
0
0
0
0
0
0
0
0
0
0
0
0
0
0
0
0
0
0
-94.648751
0
0
0
0
0
0
-143.85453
0
0
-68.490468
0
0
0
-88.96817
0
0
-183.38648
0
0
0
-159.48016
0
0
0
0
0
0
0
0
0
0
0
0
0
0
0
0
0
0
0
0
0
0
0
0
0
0
0
0
0
0
0
0
0
0
0
0
0
0
0
0
0
0
0
0
0
0
0
0
0
0
0
0
0
0
0
0
0
0
0
0
0
0
0
0
0
0
0
0
0
0
0
0
0
0
0
0
0
0
0
0
0
0
0
0
0
0
0
0
0
0
0
0
0
0
0
0
0
0
0
0
0
0
0
0
0
0
0
0
0
0
0
0
0
0
0
0
0
0
0
0
0
0
0
-143.90182
-165.95393
-164.3491
-136.22599
-139.09865
-142.10084
-170.30592
-84.742834
0
-94.876868
0
-107.52155
-74.662704
0
0
0
-80.035271
0
-86.190809
0
0
-188.74979
-176.61712
-160.41751
-190.92231
-185.58155
-163.24685
-196.18625
0
0
0
0
0
0
0
0
0
-80.081356
0
-64.986186
-66.248055
0
0
0
0
0
0
0
0
-116.90958
-152.29692
-136.0937
-124.24103
-113.94122
-128.82961
-138.68603
0
0
0
0
0
0
0
0
0
0
0
0
0
0
0
0
0
0
0
0
0
0
0
0
0
0
0
0
0
0
0
0
0
0
0
0
0
0
0
0
0
0
0
0
0
-75.42939
0
0
0
0
-196.43364
-189.96107
-196.14764
-193.73507
-193.35071
-202.86275
-197.81552
0
0
0
0
0
0
0
0
0
0
0
0
0
0
0
0
0
0
0
0
0
0
0
0
0
0
0
0
0
0
0
0
0
0
0
0
0
0
0
0
0
0
0
0
0
0
0
0
0
0
0
0
0
0
0
0
0
0
0
0
0
0
0
0
0
0
0
0
0
0
0
0
0
0
0
0
0
0
0
0
0
0
0
0
0
0
0
0
0
0
0
0
0
0
0
0
0
0
0
0
0
0
0
0
0
0
0
0
0
0
0
0
0
0
0
0
0
0
0
0
0
0
0
0
0
0
0
0
0
0
0
-180.19664
-119.58177
-115.31205
0
-85.146729
0
0
0
0
-92.006992
0
0
0
0
0
0
0
0
-109.50678
-95.685766
0
0
-167.18976
-114.22299
-107.65311
0
0
0
0
0
0
0
0
0
0
0
0
0
0
-163.16502
0
0
0
0
-159.69644
0
0
0
0
0
0
0
0
0
0
0
-201.62843
-122.29746
-182.10603
0
0
0
0
0
0
0
0
-115.60801
-195.9939
-122.21214
-124.60707
-188.86331
-118.6738
-197.16452
0
0
0
0
0
0
0
0
0
0
0
0
0
0
0
0
0
0
0
0
0
0
0
0
0
0
0
0
0
0
0
0
0
0
0
0
0
0
0
0
0
0
0
0
0
0
0
0
0
-109.65121
0
-56.519613
-64.804312
-82.325496
0
-117.19498
-57.671582
0
0
0
0
0
0
-82.391038
0
-166.66189
-42.006305
-108.27329
-130.39132
0
-67.846508
0
-54.062455
-63.85467
0
-81.428205
0
-108.08847
-84.941219
-65.945249
-77.057363
-134.6011
-99.368234
-116.05118
-68.575704
0
0
0
0
-118.32851
0
0
0
-46.531
-54.276415
0
0
0
-138.95501
0
-182.05501
-178.28908
-99.188938
0
-144.06632
-179.90011
0
-198.26597
-192.59617
0
-172.81341
0
-156.7928
0
0
0
0
0
0
-189.18981
0
-187.39627
-49.390332
-196.70325
-153.97163
0
-162.82983
-202.29048
-195.90118
-194.05182
-178.41673
-204.81237
-166.27486
0
0
-164.04981
-162.53146
0
0
0
-170.84179
0
0
0
0
-143.6417
0
0
0
0
0
0
0
0
0
0
0
0
0
0
0
0
0
0
0
0
0
0
0
0
0
0
0
0
0
0
0
0
0
0
0
0
0
0
0
0
0
0
0
0
0
0
0
0
0
0
0
0
0
0
0
0
0
0
0
0
0
0
0
0
0
0
0
0
0
0
0
0
0
0
0
0
0
0
0
0
0
0
0
0
0
0
0
0
0
0
0
0
0
0
0
0
0
0
0
0
0
0
0
0
0
0
0
0
0
0
0
0
0
0
0
0
0
0
0
0
0
0
0
0
0
0
0
0
0
0
0
0
0
0
0
0
0
0
0
0
0
0
0
0
0
0
0
0
0
0
0
0
0
0
0
0
0
0
0
0
0
0
0
0
0
0
0
0
0
0
0
0
0
0
0
0
0
0
0
0
0
0
0
0
0
0
0
0
0
0
0
0
0
0
0
0
0
0
0
0
0
0
0
0
0
0
0
0
0
0
0
0
0
0
0
0
0
0
0
0
0
0
0
0
0
0
0
0
0
0
0
0
0
0
0
0
0
0
0
0
0
0
0
0
0
0
0
0
0
0
0
0
0
0
0
0
0
0
0
0
0
0
0
0
0
0
0
0
0
0
0
0
0
0
0
0
-64.178207
-92.733173
-75.793136
0
0
0
0
0
0
0
0
0
0
0
0
0
0
0
0
0
0
0
0
0
0
0
0
-121.35262
-136.00844
-97.010662
-82.717558
0
-120.15269
-139.27759
-133.44721
-142.00378
0
-115.1742
-130.84512
0
-145.9129
-123.34946
-115.72699
-105.78131
-97.187969
-121.97083
-101.63513
-120.56229
0
0
0
0
0
0
-120.27442
-125.29012
0
0
-113.711
-126.71064
0
0
-106.13798
0
-72.973568
-82.901505
0
0
-105.50967
0
0
0
0
0
0
0
0
0
0
-55.006633
0
0
0
0
0
0
0
0
0
0
0
0
0
0
0
0
0
0
0
0
-101.52521
-124.71253
-140.6184
0
0
0
0
0
0
0
0
-129.38186
-121.8452
-167.22423
-131.46107
-142.55958
-163.82398
-113.93447
0
0
-96.821185
0
-113.93739
0
0
-138.3747
-164.4083
-192.28372
-137.63767
-156.55472
-184.33032
-119.15134
0
0
0
0
0
0
0
-84.137999
0
0
-94.820993
-102.32712
-123.35432
-83.046037
0
0
0
-131.92364
0
-133.80937
0
0
0
0
0
0
0
0
-119.90753
-129.35592
-160.37302
-186.95524
-136.96356
-169.20458
-112.72901
0
0
-89.479282
0
-93.120731
0
0
0
0
0
-125.02448
0
-131.7274
0
-127.6651
-173.97979
-196.65682
-150.24209
-145.45591
-175.79245
-132.03816
0
0
0
0
0
0
0
-99.504375
-142.71231
-96.756612
-137.01303
-100.69541
-141.68544
-138.47964
-146.81951
-141.74716
-108.23272
-93.855747
-103.26364
-134.03759
-152.44366
-181.69874
-151.98581
-174.64467
-142.88006
-180.80567
-173.48806
-152.7681
-186.23283
-192.74376
-181.76613
-197.37676
-192.67161
-182.10783
-185.8234
-143.64492
-98.194436
-101.28485
-139.63009
-101.67387
-139.84975
-143.2587
-185.26199
-179.32131
-191.82317
-195.67201
-191.9586
-184.28934
-180.71698
-92.67062
-141.02144
-87.759637
-115.256
-98.721376
-133.26058
-125.55224
0
0
0
0
-107.8354
0
0
0
0
0
0
0
0
0
0
0
0
0
0
0
0
0
-142.84303
-116.63141
-122.13137
0
-98.500006
-105.47421
0
0
0
0
0
0
0
0
0
0
0
0
0
0
0
0
0
0
0
0
0
0
0
0
0
0
0
0
0
0
0
0
0
0
0
0
0
0
0
0
-57.09776
0
0
0
0
0
0
0
0
-73.058807
-96.133495
-101.8625
-87.142203
-77.153056
-90.50582
-84.749432
0
0
0
0
-47.165871
0
0
0
-47.394338
0
-56.832432
-81.823446
-68.142233
-70.05438
-55.933351
-54.488766
-69.970146
-45.60985
-58.909223
-68.201152
-44.064869
0
0
0
0
0
0
0
0
0
0
0
0
0
0
0
-54.912563
-70.934468
-63.733496
-49.364869
0
-64.650242
0
0
0
0
0
0
0
0
0
0
0
0
0
0
0
-53.697137
-58.568035
-41.322406
-45.109547
-58.907981
0
-45.848902
-75.559232
0
-54.983994
-50.619807
-67.68176
-60.123014
-100.30535
-126.35704
-75.573241
-80.840673
-109.72005
-117.04562
-69.065738
-105.82194
-125.11107
-114.20228
-96.126378
-104.45093
-125.79005
-95.525032
-99.378849
-106.3334
-89.628112
-79.507276
-97.265863
-109.86637
-80.659104
-84.774945
0
-66.790777
-77.438035
-96.265629
-57.559914
-67.792518
-55.452171
-90.603463
-73.323923
-94.598824
-106.34348
-62.205246
-80.911996
-89.745691
-64.973433
-80.084035
-72.297443
-88.888724
-79.68147
-72.408864
0
0
0
0
0
0
0
0
0
0
0
0
0
0
0
0
0
0
0
0
0
0
-45.361863
-36.222147
0
0
0
0
0
0
0
0
0
0
0
0
0
0
0
0
0
0
0
0
0
0
0
0
0
0
0
0
0
0
0
0
0
0
0
0
0
0
0
0
0
0
0
0
0
0
0
0
0
0
0
0
0
0
0
0
0
0
0
0
0
-116.54172
-141.80069
-134.80923
-92.640496
-101.62849
-119.70627
0
0
0
0
0
0
0
0
0
-110.08726
0
0
0
0
0
0
0
0
0
0
0
0
-111.7168
0
0
0
0
0
-151.64378
-149.94036
-111.4689
-108.39987
-159.81398
-152.92272
0
-169.83472
-165.66096
0
-119.73125
-169.27242
-170.54123
0
-174.07872
-189.65191
-171.59983
-176.15711
-183.43012
-181.74954
-157.89675
-130.54021
0
0
0
-134.09334
0
0
-133.80476
-98.647743
-131.66364
0
-139.95966
0
-120.93127
0
0
0
0
0
0
0
-161.13616
-121.44808
-154.26882
0
-171.70781
0
-138.7921
0
0
0
0
0
0
0
0
0
0
0
0
0
0
0
0
0
0
0
0
0
0
0
0
0
0
0
0
0
0
0
0
0
0
0
0
0
0
0
0
0
0
0
0
0
0
0
0
0
0
0
0
0
0
0
0
0
0
0
0
0
0
0
0
0
0
0
0
0
0
0
0
0
0
0
0
0
0
0
0
0
0
0
0
0
0
0
0
0
0
0
0
0
0
0
0
0
0
0
0
0
0
0
0
0
0
0
0
0
0
0
0
0
0
0
0
0
0
0
0
0
0
0
0
0
0
0
0
0
0
0
0
0
0
0
0
0
0
0
0
0
0
0
0
0
0
0
0
0
0
0
0
0
0
0
0
0
0
0
0
0
-95.76246
-51.698919
0
-113.40825
0
-118.39553
-97.611354
0
0
0
0
0
0
0
-158.19623
-130.55227
-134.20686
-128.87926
-148.22958
-151.80387
-124.27633
0
0
0
0
0
0
0
-82.748144
0
0
-74.526967
0
-89.169444
0
-125.17674
-66.633066
0
-129.3339
-132.73207
-126.00122
0
-189.14795
-189.70946
-190.49894
-188.71758
-172.98672
-181.68215
-186.45831
0
0
0
0
0
0
0
0
0
0
0
0
0
0
-94.377972
0
-73.121209
-81.932152
-111.86534
-81.507528
-109.77524
-82.83658
-48.512863
-104.53494
-49.831042
-90.028619
-96.090326
-45.482576
0
0
0
-34.796109
0
-44.508707
0
0
0
0
0
0
0
0
-114.33821
0
-128.77946
-150.32947
-134.59662
-142.13024
-133.99785
-84.274565
0
-88.508078
-91.373123
0
-89.229951
0
-121.07012
-65.523083
-120.93184
-56.362568
-124.52949
-111.1249
-63.330781
0
0
0
0
0
0
0
0
0
0
0
0
0
0
0
0
0
0
0
0
0
0
0
0
0
0
0
0
0
0
0
0
0
0
0
0
0
0
0
0
0
0
0
0
0
0
0
0
0
0
0
0
0
0
0
0
0
0
0
0
0
0
0
0
0
0
0
0
0
0
0
0
0
0
0
0
0
0
0
0
0
0
0
0
0
0
0
0
0
0
0
0
0
0
0
0
0
0
0
-98.668838
-81.448194
-73.139037
0
-80.418873
0
0
0
0
0
0
0
0
0
-102.45884
0
0
0
0
0
0
0
-74.563584
0
0
0
0
0
0
-93.42864
0
0
0
0
0
-123.64515
-107.46019
-127.8254
-91.392128
-85.846149
-104.13069
0
0
0
0
0
0
0
0
0
0
0
0
0
0
-56.785152
-74.633763
-65.711246
-53.186577
0
-70.25613
-58.101618
0
0
0
0
0
0
0
0
0
0
0
0
0
-67.802601
0
0
0
0
0
0
0
-60.500175
-81.370564
-80.78337
-69.39291
-64.028873
-75.507228
-63.692976
0
0
0
0
0
0
-64.711423
0
0
0
0
0
0
0
-122.16813
-174.89043
-131.80376
-174.49711
-130.56265
-124.62645
-164.85944
0
0
-77.251802
0
0
0
-79.470525
0
0
0
0
0
0
0
0
0
-107.65161
0
0
0
-114.72166
-113.23901
-166.9178
-117.68638
-146.07168
-104.54652
-123.82442
-155.38031
0
-80.29443
0
0
0
-84.793743
0
0
-128.70505
0
0
0
0
-121.74285
0
0
0
0
0
0
0
0
0
0
0
0
0
0
0
0
0
0
0
0
0
0
0
0
0
0
0
0
0
0
0
0
0
0
0
0
0
0
0
0
0
0
0
0
0
0
0
0
0
0
0
0
0
0
0
0
0
0
0
0
0
0
0
0
0
0
0
0
0
0
0
0
0
0
0
0
0
0
0
0
0
0
0
0
0
0
0
0
0
0
0
0
0
0
0
0
0
0
0
0
0
0
0
0
0
0
0
0
0
0
0
0
0
0
0
0
0
0
0
0
0
0
0
0
0
0
0
0
0
0
0
0
0
-112.58003
-123.68533
-118.93049
0
0
0
-134.50178
-81.777393
0
-74.393097
0
0
0
-84.799697
0
0
0
0
0
0
-98.000093
-140.2292
-167.36207
-186.69799
-157.87479
-156.83947
-174.77909
-141.74327
-123.45878
-116.09778
0
-156.75211
0
-140.0674
-145.72263
-117.95591
-117.68732
-98.995182
-136.65612
-97.846305
-137.34278
-119.27382
0
0
0
0
0
0
0
-71.766457
-103.53938
-90.114632
-99.791139
-88.8416
-111.45888
-76.990694
0
0
0
0
0
0
0
-119.72727
0
0
0
0
-131.65812
0
0
0
-110.68931
0
0
-120.7455
0
0
0
0
0
0
0
0
-92.36965
-90.045872
-102.11583
-74.391752
-85.040656
-106.41263
-75.566446
0
0
0
0
0
0
0
0
0
0
0
0
0
0
0
0
0
0
0
0
0
0
0
0
0
0
0
0
-137.85285
-114.33299
-127.91567
-124.96982
-107.80348
-113.42715
-133.20056
-110.45554
-109.33726
-119.98351
-117.44537
-94.19305
-112.38888
-104.60766
-131.82552
-121.23473
-127.63155
-127.7274
0
-132.73047
-128.07245
-129.70839
0
-126.44176
-121.11147
-129.70564
-132.27173
-124.19263
-135.17081
-154.26358
-172.2093
-144.94347
-145.81059
-158.09349
-132.14866
-128.18317
-109.30171
-114.6855
-146.89713
-113.73533
-133.91629
-137.44737
-122.75118
-100.5662
-115.19674
-124.95593
-129.72982
-113.44311
-113.57581
0
0
0
0
0
0
0
0
0
0
0
0
0
0
0
0
0
0
0
0
0
0
0
0
0
0
0
0
0
0
0
0
0
0
0
0
0
0
0
0
0
0
0
0
0
0
0
0
0
-122.10874
-142.65271
-101.53786
-111.31747
-168.28232
-151.83419
-129.40603
0
0
0
0
0
0
0
-122.88956
0
0
-93.032094
0
-133.9241
0
-106.50106
0
-125.38259
0
-87.874772
-147.0915
0
-82.738403
0
-87.740123
0
0
-96.045945
0
-121.55917
-175.21887
-142.82763
-123.43036
-105.90665
-161.29973
-136.02928
0
0
0
0
0
0
0
0
0
0
0
0
0
0
-162.26944
-124.39176
-143.85259
0
-122.64111
0
-175.9014
-119.82172
-69.493926
-118.17861
0
-102.48377
-125.3383
0
0
0
0
0
-108.9736
0
0
-185.01607
-194.57276
-209.93896
-193.3176
-199.79268
-193.14752
-186.13892
-164.05116
-121.89001
0
-171.7251
-163.23647
0
-172.02389
-173.77504
-163.50073
-166.76971
-188.42421
-145.42803
-183.48435
-181.73895
0
0
0
0
0
0
0
0
0
0
0
0
0
0
0
0
0
0
0
0
0
0
0
0
0
0
0
0
0
0
0
0
0
0
0
-158.90178
-121.01943
-168.22514
-169.0198
-113.17991
-152.92631
-123.05654
-191.80425
-184.28953
-188.04856
-194.08999
-204.57703
-192.76679
-195.17154
-127.86445
-164.48196
-179.27598
-188.74912
-133.34122
-137.30347
-176.55459
-196.17705
-141.68006
-134.12806
-164.50051
-142.4284
-184.57556
-187.00279
-189.72334
-176.12699
-198.83358
-190.84636
-185.43713
-192.28113
-186.93429
-171.68913
-114.22266
-123.80717
-164.17611
-155.31566
-124.59844
-172.663
-198.25476
-211.94096
-181.15302
-193.62906
-198.37838
-191.64629
-197.53212
0
0
0
0
0
0
0
0
0
0
0
0
0
0
0
0
0
0
0
0
0
0
0
0
0
0
0
0
0
0
0
0
0
0
0
0
0
0
0
0
0
0
0
0
0
0
0
0
0
0
0
0
0
0
0
0
0
0
0
0
0
0
0
-101.92484
-89.519802
-81.396687
-85.961068
-113.48032
-92.1738
-108.13977
0
-37.986096
-51.308761
-55.828374
0
0
-40.211964
-71.738433
-47.285376
-62.017319
-65.375404
-57.856064
-73.710081
-49.1521
-67.092155
-61.175754
-53.070543
-80.092305
-76.889644
-68.577986
-51.124185
-79.971186
-104.11255
0
-94.719183
-74.691671
-75.268944
-106.59603
-56.33046
0
-41.809111
0
0
-56.365606
-41.062476
-86.860077
-115.91817
-96.699207
-107.19991
-94.546417
-86.73474
-108.79726
0
-45.452275
-55.118923
-46.361464
0
0
0
0
0
0
0
0
0
0
0
0
0
0
0
0
0
0
0
0
0
0
0
0
-94.193251
-90.974038
-96.149866
-75.407623
-81.913186
-107.00826
-84.574027
-74.977708
-47.278867
-73.6855
0
-70.503682
-79.613324
-46.392765
-118.56236
-153.73859
-145.14709
-153.64738
-129.83961
-132.96138
-140.77706
-76.025402
-46.11643
-80.259861
-38.330815
-68.389042
-88.190038
-42.599009
-101.90462
-99.331101
-94.712599
-126.21261
-87.994065
-110.2631
-116.32757
-107.94719
-110.59836
-141.66284
-116.94408
-121.89622
-96.974582
-128.71607
-70.889321
-64.407351
0
0
-67.856353
-64.476358
-45.952976
-55.353556
-62.825141
-48.650567
-49.430272
-67.551817
-56.599598
-63.077627
0
0
0
-31.868099
0
0
0
-58.271183
-41.502627
-44.874432
-45.874368
-55.112764
-58.917762
-42.674562
-49.869649
-59.394047
-69.186953
-49.670013
-54.093837
-63.944911
-46.072765
-38.156877
0
0
0
-41.792907
-45.547902
0
-54.106721
-74.325451
-75.029763
-65.058517
-59.041681
-60.623591
-68.922963
-34.701796
0
0
0
-37.781062
0
0
-102.38349
-78.407309
-94.838018
-92.29051
-82.472144
-98.18336
-77.224136
-80.399881
-72.114079
-87.780896
-86.618215
-66.707645
-80.842885
-72.057348
-92.846386
-71.826592
-84.461528
-90.882888
-85.658625
-99.850414
-78.132303
-99.452163
-90.739004
-91.690044
-116.15984
-106.35411
-107.78882
-84.279148
-60.180604
-54.982967
-83.235327
-62.814687
-69.90001
-49.699451
-72.616597
-57.248803
0
0
-81.806208
0
-69.84691
-65.107703
0
0
0
0
0
0
0
-51.542284
0
-71.754125
0
-60.357591
-62.681007
0
0
0
0
0
0
-55.994847
0
-73.579794
-98.729577
-105.45426
-104.54677
-86.382265
-85.485582
-91.537286
0
-53.906114
0
0
0
-55.294588
0
0
0
0
0
0
0
0
0
0
0
0
0
0
0
-37.189442
-36.677512
0
0
-47.763274
-38.566205
-37.850449
0
-50.971357
-43.14198
-43.463583
-40.844048
0
-40.585596
0
0
0
0
0
0
0
0
0
0
0
0
0
0
-129.69243
-170.24094
-152.56906
-162.74102
-142.8913
-137.66259
-173.32648
0
-114.37853
-136.73185
-159.82387
0
0
-131.06422
-192.8951
-146.68455
-165.90646
-175.25258
-184.77787
-193.70622
-155.38119
-176.74782
-185.9317
-145.41363
-187.28986
-192.85542
-159.61051
-160.78792
-152.29149
-129.41416
-109.63542
-114.61533
-143.86464
-132.20315
-130.18054
-166.01224
0
-116.41516
0
-152.93896
-139.162
-137.80176
-164.23107
-144.34385
-172.56834
-133.21878
-138.44776
-174.40262
-153.96027
-133.26519
-187.2628
-139.14029
-141.49834
-182.64476
-137.36582
-188.31595
0
-89.171381
-93.648158
-94.824646
0
-89.247344
0
-195.92763
-149.63634
-146.03099
-146.59269
-200.94089
-195.61453
-147.60131
-147.01234
-202.12455
-185.10939
-139.33224
-139.22583
-195.51458
-146.46642
-94.791264
0
-88.176338
0
-88.725229
-94.94559
0
-143.70818
-186.06784
-178.51114
-130.83287
-134.5475
-141.61342
-190.15832
-96.050486
0
-85.455745
0
-91.302518
-89.520191
0
0
-114.45684
-108.05139
-149.45759
-101.90449
-79.558821
-107.94422
0
0
0
0
0
0
0
0
0
0
0
0
0
0
0
0
0
0
0
0
0
0
0
0
0
0
0
0
0
0
0
0
0
0
0
0
0
0
0
0
0
0
-182.25773
-191.78535
-184.66491
-184.20975
-186.20979
-187.10402
-178.45315
-127.91295
-71.04748
-132.57947
-78.157108
-135.55037
-128.38294
-70.519676
-178.91796
-179.12093
-190.71046
-173.65701
-183.96997
-164.36661
-185.78534
-118.0098
-52.934428
-96.407522
-59.246426
-103.68406
-114.50129
-61.403736
-185.35961
-194.53986
-186.6524
-190.71089
-187.60352
-185.93368
-189.5721
-174.65727
-179.17093
-163.51317
-141.85276
-152.88111
-183.24296
-169.72649
-125.61831
-132.16053
0
-67.144028
-134.11638
-122.83901
-68.965939
-193.2608
-200.16969
-192.36627
-192.60266
-207.51367
-194.52165
-203.58907
-191.71393
-197.58977
-191.50768
-191.46516
-197.71326
-191.82396
-199.94378
-191.2665
-198.78186
-196.97233
-188.1231
-191.28722
-201.75703
-189.46671
0
-84.082379
0
0
0
0
-93.815187
0
-71.524064
0
0
0
-72.460614
0
-122.80121
-121.61865
-89.187624
-89.90243
-166.93369
-128.00066
-121.15115
-90.220701
-168.89136
-122.33539
-114.54436
-131.54992
-120.74329
-84.996446
0
0
0
0
0
0
0
0
0
-86.376463
0
0
-100.43923
0
0
0
-69.562958
0
-72.850987
0
0
-128.45082
-132.12667
-181.35345
-163.62303
-145.31217
-119.78099
-172.3238
-84.333458
0
0
-96.705464
0
-76.501329
-107.8035
0
0
0
0
0
0
0
-86.080825
0
-88.541015
0
-75.748796
-108.80926
0
-84.846825
-95.295446
0
0
0
-110.79232
0
-126.45682
-170.57792
-127.56481
-130.18203
-111.76105
-143.31744
-159.35827
-87.755484
-116.28433
0
0
0
-118.0222
0
0
0
0
0
0
0
0
0
0
0
0
0
0
0
0
0
0
0
0
0
0
0
0
0
0
0
0
0
0
0
0
0
0
0
0
0
0
0
0
0
0
0
0
0
0
0
0
0
0
0
0
0
0
0
0
0
0
0
0
0
0
0
0
0
0
0
0
0
0
0
0
0
0
0
0
0
0
0
0
0
0
0
0
0
0
0
0
0
0
0
0
0
0
0
0
0
0
0
0
0
0
0
0
0
0
0
0
0
0
0
0
0
0
0
0
0
0
0
0
0
0
0
-114.66628
0
0
0
0
0
0
-119.40379
0
0
0
0
0
0
0
0
0
0
0
0
0
0
0
0
0
0
0
0
0
0
0
0
0
0
0
0
0
0
0
0
0
0
0
0
0
0
0
0
0
0
0
0
0
0
0
0
0
0
0
0
0
0
0
0
0
0
0
0
0
0
0
0
0
0
0
0
0
0
0
0
0
0
0
0
0
0
0
0
0
0
0
0
0
0
0
0
0
0
0
0
0
0
0
0
0
0
0
0
0
0
0
0
0
0
0
0
0
0
0
0
0
0
0
0
0
0
0
0
0
0
0
0
0
0
0
0
0
0
0
0
0
0
0
0
0
0
0
0
0
0
0
0
0
0
0
0
0
0
0
0
0
0
0
0
0
0
0
0
0
0
0
0
0
0
0
0
0
0
0
0
0
0
0
0
0
0
0
0
0
0
0
0
0
0
0
0
0
0
0
0
0
0
0
0
0
0
0
0
0
0
0
0
0
0
0
0
0
0
0
0
0
0
0
0
0
0
0
0
0
0
0
0
0
0
0
0
0
0
0
0
0
0
0
0
0
0
0
0
0
0
0
0
0
0
0
0
0
0
0
0
0
0
0
0
0
0
0
0
0
0
0
0
0
0
0
0
0
0
0
0
0
0
0
0
0
0
0
0
0
0
0
0
0
0
0
0
0
0
0
0
0
0
0
0
0
0
0
0
0
0
0
0
0
0
0
0
0
0
0
0
0
0
0
0
0
0
0
0
0
0
0
0
0
0
0
0
0
0
0
0
0
0
0
0
0
0
0
0
0
0
0
0
0
0
0
0
0
0
0
0
0
0
0
0
0
0
0
0
0
0
0
0
0
0
0
0
0
0
0
0
0
0
0
0
0
0
0
0
0
0
0
0
0
0
0
0
0
0
0
0
0
0
0
0
0
0
0
0
0
0
0
0
0
0
0
0
0
0
0
0
0
0
0
0
0
0
0
0
0
0
0
0
0
0
0
0
0
0
0
0
0
0
0
0
0
0
0
0
0
0
0
0
0
0
0
0
0
0
0
0
0
0
0
0
0
0
0
0
0
0
0
0
0
0
0
0
0
0
0
0
0
0
0
0
0
0
0
0
0
0
0
0
0
0
0
0
0
0
0
0
0
0
0
0
0
0
0
0
0
0
0
0
0
0
0
0
0
0
0
0
0
0
0
0
0
0
0
0
0
0
0
0
0
0
0
0
0
0
0
0
0
0
0
0
0
0
0
0
0
0
0
0
0
0
0
0
0
0
0
0
0
0
0
0
0
0
0
0
0
0
0
0
0
0
0
0
0
0
0
0
0
0
0
0
0
0
0
0
0
0
0
0
0
0
0
0
0
0
-192.82017
-212.01801
-200.81912
-193.68645
-195.60977
-206.4277
-191.61061
0
0
0
0
0
0
0
0
0
0
0
0
0
0
0
0
0
0
0
0
0
0
0
0
0
0
0
0
0
0
0
0
0
0
0
0
0
0
0
0
0
0
0
0
0
0
0
0
0
0
0
0
0
0
0
0
0
0
0
0
0
0
0
0
0
0
0
0
0
0
0
0
0
0
0
0
0
0
0
0
0
0
0
0
0
0
0
0
0
0
0
0
0
0
0
0
0
0
0
0
0
0
0
0
0
0
0
0
0
0
0
0
0
0
0
0
0
0
0
0
0
0
0
0
0
0
0
0
0
0
0
0
0
0
0
0
0
0
0
0
0
0
0
0
0
0
0
0
0
0
0
0
0
0
0
0
0
0
0
0
0
0
0
0
0
0
0
0
0
0
0
0
0
0
0
0
0
0
0
0
0
0
0
0
0
0
0
0
0
0
0
0
0
0
0
0
0
0
0
0
0
0
0
0
0
0
0
0
0
0
0
0
0
0
0
0
0
0
0
0
0
0
0
0
0
0
0
0
0
0
0
0
0
0
0
0
0
0
0
0
0
0
0
0
0
0
0
0
0
0
0
0
0
0
0
0
0
0
0
0
0
0
0
0
0
0
0
0
0
0
0
0
0
0
0
0
0
0
0
0
0
0
0
0
0
0
0
0
0
0
0
0
0
0
0
0
0
0
0
0
0
0
0
0
0
0
0
0
0
0
0
0
0
0
0
0
0
0
0
0
0
0
0
0
0
0
0
0
0
0
0
0
0
0
0
0
0
0
0
0
0
0
0
0
0
0
0
0
0
0
0
0
0
0
0
0
0
0
0
0
0
0
0
0
0
0
0
0
0
0
0
0
0
0
0
0
0
0
0
0
0
0
0
0
0
0
0
0
0
0
0
0
0
0
0
0
0
0
0
0
0
0
0
0
0
0
0
0
0
0
0
0
0
0
0
0
0
0
0
0
0
0
0
0
0
0
0
0
0
0
0
0
0
0
0
0
0
0
0
0
0
0
0
0
0
0
0
0
0
0
0
0
0
0
0
0
0
0
0
0
0
0
0
0
0
0
0
0
0
0
0
0
0
0
0
0
0
0
0
0
0
0
0
0
0
0
0
0
0
0
0
0
0
0
0
0
0
0
0
0
0
0
0
0
0
0
0
0
0
0
0
0
0
0
0
0
0
0
0
0
0
0
0
0
0
0
0
0
0
0
0
0
0
0
0
0
0
0
0
0
0
0
0
0
0
0
0
0
0
0
0
0
0
0
0
0
0
0
0
0
0
0
0
0
0
0
0
0
0
0
0
0
0
0
0
0
0
0
0
0
0
0
0
0
0
0
0
0
0
0
0
0
0
0
0
0
0
)


5973
(
0
0
0
0
0
0
0
0
0
0
0
0
0
0
0
0
0
0
0
0
0
0
0
0
0
0
0
0
0
0
0
0
0
0
0
0
0
0
0
0
0
0
0
0
0
0
0
0
0
0
0
0
0
0
0
0
0
0
0
0
0
0
0
0
0
0
0
0
0
0
0
0
0
0
0
0
0
0
0
0
0
0
0
0
0
0
0
0
0
0
0
0
0
0
0
0
0
0
-120.98916
0
0
0
0
0
0
-132.6137
0
0
0
0
0
0
-112.85702
0
0
0
0
0
0
0
0
0
0
0
0
0
0
0
0
0
0
0
0
0
0
0
0
0
0
0
0
0
0
0
0
0
0
0
0
0
0
0
0
0
0
0
0
0
0
0
0
0
0
0
0
0
0
0
0
0
0
0
0
0
0
0
0
0
0
0
0
0
0
0
0
-140.78962
0
0
0
0
0
0
0
0
0
0
0
0
0
0
0
0
0
0
0
0
0
0
0
0
0
0
0
0
0
0
0
0
0
0
0
0
0
0
0
0
0
0
0
0
0
0
0
0
0
0
0
0
0
0
0
0
0
0
0
0
0
0
0
0
0
0
0
0
0
0
0
0
0
0
0
0
0
0
0
0
0
0
0
0
0
0
0
0
0
0
0
0
0
0
0
0
0
0
0
0
0
0
0
0
0
0
0
0
0
0
0
0
0
0
0
0
0
0
0
0
0
0
0
0
0
0
0
0
0
0
0
0
0
0
0
0
0
0
0
0
0
0
0
0
0
0
0
0
0
0
0
0
0
0
0
0
0
0
0
0
0
0
0
0
0
0
0
0
0
0
0
0
0
0
0
0
0
0
0
0
0
0
0
0
0
0
0
0
0
0
0
0
0
0
0
0
0
0
0
0
0
0
0
0
0
0
0
0
0
0
0
0
0
0
0
0
0
0
0
0
0
0
0
0
0
0
0
0
0
0
0
0
0
0
0
0
0
0
0
0
0
0
0
0
0
0
0
0
0
0
0
0
0
0
0
0
0
0
0
0
0
0
0
0
0
0
0
0
0
0
0
0
0
0
0
0
0
0
0
0
0
0
0
0
0
0
0
0
0
0
0
0
0
0
0
0
0
0
0
0
-47.905491
0
0
-126.63912
0
0
0
0
-50.736815
0
-144.57142
0
0
0
0
0
0
0
0
0
0
0
0
0
0
0
0
0
0
0
0
0
0
0
0
-47.93151
0
-109.95079
0
0
-86.170272
0
0
-50.595173
-141.60598
0
0
0
0
0
0
0
0
0
0
0
0
0
0
0
0
0
0
0
0
0
0
0
0
0
0
0
0
0
0
0
0
0
0
0
0
0
0
0
0
0
0
0
0
0
0
0
0
0
0
0
0
0
0
0
0
0
0
0
0
0
0
0
0
0
0
0
0
0
0
0
0
0
0
0
0
0
0
0
0
0
0
0
0
0
0
0
0
0
0
0
0
0
0
0
0
0
0
0
0
0
0
0
0
0
0
0
0
0
0
0
0
0
0
0
0
0
0
0
0
0
0
0
0
0
0
0
0
0
0
0
0
0
0
0
0
0
0
0
0
0
0
0
0
0
0
0
0
0
0
0
0
0
0
0
0
0
0
0
0
0
0
0
0
0
0
0
0
0
0
0
0
0
0
0
0
0
0
0
0
0
0
0
0
0
0
0
0
0
0
0
0
0
0
0
0
0
0
0
0
0
0
0
-68.477673
0
0
0
0
0
-91.411001
-109.31578
-81.008477
0
0
0
0
0
0
0
0
0
0
0
0
0
0
0
0
0
0
0
0
0
0
0
0
0
0
0
0
0
0
0
0
0
-103.75732
0
-153.81132
0
-67.697878
0
0
-156.35984
0
0
-168.89212
0
0
-96.004935
-109.88009
-177.10359
-91.720734
-161.26943
-78.967928
0
0
0
0
-159.76702
0
0
0
0
0
0
0
0
0
0
0
0
0
0
0
0
0
0
0
0
0
0
0
0
0
-82.657074
0
-56.240253
-47.815605
0
0
0
-60.525533
0
0
-46.067795
0
0
-86.321022
-89.249131
-70.526334
0
-66.04748
-54.675394
0
0
0
0
-41.051562
0
0
0
0
0
0
0
0
0
0
0
0
0
0
0
0
0
0
0
0
0
0
0
0
0
0
0
0
0
0
0
0
0
0
0
0
0
0
0
0
0
0
0
0
0
0
0
0
0
0
0
0
0
0
0
0
0
0
0
0
0
0
0
0
0
0
0
0
0
0
0
0
0
0
0
0
0
0
0
0
0
0
0
0
0
0
0
0
0
0
0
0
0
0
0
0
0
0
0
0
0
0
0
0
0
0
0
0
0
0
0
0
0
0
0
0
0
0
0
0
0
0
0
0
0
0
0
0
0
0
0
0
0
0
0
0
0
0
0
0
0
0
0
0
0
0
0
0
0
0
0
0
0
0
0
0
0
0
0
0
0
0
0
0
0
0
0
0
0
0
0
0
0
0
0
-141.91207
0
0
0
0
0
-99.4823
-104.14481
-173.89185
0
-84.539246
0
0
0
0
0
0
0
0
0
0
0
0
0
0
0
0
0
0
0
0
0
0
0
0
0
0
0
0
0
0
0
0
0
0
0
0
0
0
0
0
0
0
0
0
0
0
0
0
0
0
0
0
0
0
0
0
0
0
0
0
0
0
0
0
0
0
0
0
0
0
0
0
0
0
0
0
0
0
0
0
0
0
0
0
0
0
0
0
0
0
0
0
0
0
0
0
0
0
0
0
0
0
0
0
0
0
0
0
0
0
0
0
0
0
0
0
0
0
0
0
0
0
0
0
0
0
0
0
0
0
0
0
0
0
0
0
0
0
0
0
0
0
0
0
0
0
0
0
0
0
0
0
0
0
0
0
0
0
0
0
0
0
0
0
0
0
0
0
0
0
0
0
0
0
0
0
0
0
0
0
0
0
0
0
0
0
0
0
0
0
0
0
0
0
0
0
0
0
0
0
0
0
0
0
0
0
0
0
0
0
0
0
0
0
0
0
0
0
0
0
0
0
0
0
0
0
0
0
0
0
0
0
0
0
0
0
0
0
0
0
0
0
0
0
0
0
0
0
0
0
0
0
0
0
0
0
0
0
0
0
0
0
0
0
0
0
0
0
0
0
0
0
0
0
0
0
0
0
0
0
0
0
0
0
0
0
0
0
0
0
0
0
0
0
0
0
0
0
0
0
0
0
0
0
0
0
0
0
0
0
0
0
0
0
0
0
0
0
0
0
0
0
0
0
0
0
0
0
0
0
0
0
0
0
0
0
0
0
0
0
0
0
0
0
0
0
0
0
0
0
0
0
0
0
0
0
0
0
0
0
0
0
0
0
0
0
0
0
0
0
0
0
0
0
0
0
0
0
0
0
0
0
0
0
0
0
0
0
0
0
0
0
-99.818407
0
0
0
0
0
0
-120.47626
0
0
-109.25692
0
0
0
-108.62727
0
0
-135.87078
0
0
0
-135.07326
0
0
0
0
0
0
0
0
0
0
0
0
0
0
0
0
0
0
0
0
0
0
0
0
0
0
0
0
0
0
0
0
0
0
0
0
0
0
0
0
0
0
0
0
0
0
0
0
0
0
0
0
0
0
0
0
0
0
0
0
0
0
0
0
0
0
0
0
0
0
0
0
0
0
0
0
0
0
0
0
0
0
0
0
0
0
0
0
0
0
0
0
0
0
0
0
0
0
0
0
0
0
0
0
0
0
0
0
0
0
0
0
0
0
0
0
0
0
0
0
0
0
0
-101.62677
-114.76659
-120.73985
-102.26162
-109.41918
-94.901691
-114.08372
-82.385375
0
-83.827619
0
-96.010723
-70.976581
0
0
0
-77.468655
0
-76.062774
0
0
-143.14505
-128.42958
-124.12989
-149.22149
-143.8739
-120.86264
-147.60369
0
0
0
0
0
0
0
0
0
-66.477978
0
-52.898958
-56.170381
0
0
0
0
0
0
0
0
-79.369893
-107.07388
-104.67599
-94.175604
-86.22222
-86.929956
-99.477341
0
0
0
0
0
0
0
0
0
0
0
0
0
0
0
0
0
0
0
0
0
0
0
0
0
0
0
0
0
0
0
0
0
0
0
0
0
0
0
0
0
0
0
0
0
-64.508368
0
0
0
0
-145.59668
-135.90128
-138.16355
-152.96159
-149.25602
-133.12433
-150.54583
0
0
0
0
0
0
0
0
0
0
0
0
0
0
0
0
0
0
0
0
0
0
0
0
0
0
0
0
0
0
0
0
0
0
0
0
0
0
0
0
0
0
0
0
0
0
0
0
0
0
0
0
0
0
0
0
0
0
0
0
0
0
0
0
0
0
0
0
0
0
0
0
0
0
0
0
0
0
0
0
0
0
0
0
0
0
0
0
0
0
0
0
0
0
0
0
0
0
0
0
0
0
0
0
0
0
0
0
0
0
0
0
0
0
0
0
0
0
0
0
0
0
0
0
0
0
0
0
0
0
0
-163.43292
-113.80821
-112.72386
0
-76.648968
0
0
0
0
-96.35629
0
0
0
0
0
0
0
0
-115.06558
-88.304148
0
0
-160.14658
-115.40642
-109.83368
0
0
0
0
0
0
0
0
0
0
0
0
0
0
-141.39495
0
0
0
0
-140.07472
0
0
0
0
0
0
0
0
0
0
0
-165.25416
-104.5637
-139.03984
0
0
0
0
0
0
0
0
-105.71664
-172.30617
-90.936699
-84.370752
-161.93999
-105.95427
-156.57019
0
0
0
0
0
0
0
0
0
0
0
0
0
0
0
0
0
0
0
0
0
0
0
0
0
0
0
0
0
0
0
0
0
0
0
0
0
0
0
0
0
0
0
0
0
0
0
0
0
-89.693732
0
-53.81754
-80.327369
-65.890359
0
-110.92541
-99.916115
0
0
0
0
0
0
-108.71849
0
-156.33183
-42.008663
-116.64134
-123.63614
0
-66.863193
0
-51.840434
-89.612624
0
-94.805717
0
-93.323878
-76.935861
-61.41439
-92.236662
-131.99597
-103.98373
-114.45835
-92.95092
0
0
0
0
-110.48577
0
0
0
-46.37131
-82.21387
0
0
0
-109.82914
0
-160.31265
-174.22121
-75.173245
0
-127.0688
-155.21883
0
-164.20305
-153.72785
0
-153.81958
0
-131.68505
0
0
0
0
0
0
-156.97244
0
-161.19453
-44.034699
-150.72081
-140.09283
0
-126.80269
-183.97823
-167.36538
-174.5907
-155.33518
-167.44401
-141.57069
0
0
-165.44323
-151.12775
0
0
0
-156.45458
0
0
0
0
-130.17474
0
0
0
0
0
0
0
0
0
0
0
0
0
0
0
0
0
0
0
0
0
0
0
0
0
0
0
0
0
0
0
0
0
0
0
0
0
0
0
0
0
0
0
0
0
0
0
0
0
0
0
0
0
0
0
0
0
0
0
0
0
0
0
0
0
0
0
0
0
0
0
0
0
0
0
0
0
0
0
0
0
0
0
0
0
0
0
0
0
0
0
0
0
0
0
0
0
0
0
0
0
0
0
0
0
0
0
0
0
0
0
0
0
0
0
0
0
0
0
0
0
0
0
0
0
0
0
0
0
0
0
0
0
0
0
0
0
0
0
0
0
0
0
0
0
0
0
0
0
0
0
0
0
0
0
0
0
0
0
0
0
0
0
0
0
0
0
0
0
0
0
0
0
0
0
0
0
0
0
0
0
0
0
0
0
0
0
0
0
0
0
0
0
0
0
0
0
0
0
0
0
0
0
0
0
0
0
0
0
0
0
0
0
0
0
0
0
0
0
0
0
0
0
0
0
0
0
0
0
0
0
0
0
0
0
0
0
0
0
0
0
0
0
0
0
0
0
0
0
0
0
0
0
0
0
0
0
0
0
0
0
0
0
0
0
0
0
0
0
0
0
0
0
0
0
0
-54.910356
-77.700149
-57.70781
0
0
0
0
0
0
0
0
0
0
0
0
0
0
0
0
0
0
0
0
0
0
0
0
-93.366929
-107.91664
-90.13013
-79.027371
0
-87.145015
-106.89664
-105.31548
-116.87861
0
-113.53626
-113.33098
0
-110.13
-93.795884
-90.763421
-93.075579
-70.884125
-105.02251
-80.578604
-82.577653
0
0
0
0
0
0
-102.72809
-106.50268
0
0
-107.04464
-117.26724
0
0
-82.783139
0
-65.103433
-60.580977
0
0
-74.042115
0
0
0
0
0
0
0
0
0
0
-64.812457
0
0
0
0
0
0
0
0
0
0
0
0
0
0
0
0
0
0
0
0
-103.68523
-110.3956
-116.43988
0
0
0
0
0
0
0
0
-111.35615
-96.633161
-127.06312
-96.848006
-120.26074
-120.86777
-87.151346
0
0
-87.325015
0
-99.73804
0
0
-129.501
-138.75564
-143.99855
-127.91037
-133.31132
-140.36769
-113.68499
0
0
0
0
0
0
0
-79.182918
0
0
-93.679658
-89.124785
-106.97405
-76.904981
0
0
0
-108.65683
0
-116.04682
0
0
0
0
0
0
0
0
-103.22488
-113.85005
-136.07736
-167.3243
-118.56064
-147.60008
-98.067972
0
0
-73.916106
0
-74.994983
0
0
0
0
0
-113.64393
0
-124.01898
0
-102.86334
-138.60794
-168.25047
-118.80025
-118.64022
-147.05393
-102.66902
0
0
0
0
0
0
0
-93.999966
-126.13891
-93.486122
-116.26075
-97.923463
-120.99085
-122.48288