/*--------------------------------*- C++ -*----------------------------------*\
  =========                 |
  \\      /  F ield         | OpenFOAM: The Open Source CFD Toolbox
   \\    /   O peration     | Website:  https://openfoam.org
    \\  /    A nd           | Version:  8
     \\/     M anipulation  |
\*---------------------------------------------------------------------------*/
/*   Windows 32 and 64 bit porting by blueCAPE: http://www.bluecape.com.pt   *\
|  Based on Windows porting (2.0.x v4) by Symscape: http://www.symscape.com   |
\*---------------------------------------------------------------------------*/
FoamFile
{
    version     2.0;
    format      ascii;
    class       featureEdgeMesh;
    location    "constant/triSurface";
    object      Building.eMesh;
}
// * * * * * * * * * * * * * * * * * * * * * * * * * * * * * * * * * * * * * //


// points:

1104
(
(805.91144 132.8562 12)
(826.02002 132.8562 12)
(826.02002 145.8562 12)
(805.91144 145.8562 12)
(805.91144 170.8562 12)
(826.02002 170.8562 12)
(826.02002 183.8562 12)
(805.91144 183.8562 12)
(805.91144 132.8562 0)
(826.02002 132.8562 0)
(826.02002 145.8562 0)
(805.91144 145.8562 0)
(805.91144 170.8562 0)
(826.02002 170.8562 0)
(826.02002 183.8562 0)
(805.91144 183.8562 0)
(806.23578 132.8562 0)
(826.02002 133.1812 0)
(825.69568 145.8562 0)
(805.91144 145.5312 0)
(806.23578 170.8562 0)
(826.02002 171.1812 0)
(825.69568 183.8562 0)
(805.91144 183.5312 0)
(806.56012 132.8562 0)
(806.88446 132.8562 0)
(807.2088 132.8562 0)
(807.53308 132.8562 0)
(807.85742 132.8562 0)
(808.18176 132.8562 0)
(808.5061 132.8562 0)
(808.83044 132.8562 0)
(809.15479 132.8562 0)
(809.47906 132.8562 0)
(809.80341 132.8562 0)
(810.12775 132.8562 0)
(810.45209 132.8562 0)
(810.77643 132.8562 0)
(811.10077 132.8562 0)
(811.42511 132.8562 0)
(811.74939 132.8562 0)
(812.07373 132.8562 0)
(812.39807 132.8562 0)
(812.72241 132.8562 0)
(813.04675 132.8562 0)
(813.37109 132.8562 0)
(813.69537 132.8562 0)
(814.01971 132.8562 0)
(814.34406 132.8562 0)
(814.6684 132.8562 0)
(814.99274 132.8562 0)
(815.31708 132.8562 0)
(815.64142 132.8562 0)
(815.9657 132.8562 0)
(816.29004 132.8562 0)
(816.61438 132.8562 0)
(816.93872 132.8562 0)
(817.26306 132.8562 0)
(817.5874 132.8562 0)
(817.91168 132.8562 0)
(818.23602 132.8562 0)
(818.56036 132.8562 0)
(818.8847 132.8562 0)
(819.20905 132.8562 0)
(819.53339 132.8562 0)
(819.85767 132.8562 0)
(820.18201 132.8562 0)
(820.50635 132.8562 0)
(820.83069 132.8562 0)
(821.15503 132.8562 0)
(821.47937 132.8562 0)
(821.80371 132.8562 0)
(822.12799 132.8562 0)
(822.45233 132.8562 0)
(822.77667 132.8562 0)
(823.10101 132.8562 0)
(823.42535 132.8562 0)
(823.74969 132.8562 0)
(824.07397 132.8562 0)
(824.39832 132.8562 0)
(824.72266 132.8562 0)
(825.047 132.8562 0)
(825.37134 132.8562 0)
(825.69568 132.8562 0)
(826.02002 133.5062 0)
(826.02002 133.83121 0)
(826.02002 134.1562 0)
(826.02002 134.4812 0)
(826.02002 134.8062 0)
(826.02002 135.1312 0)
(826.02002 135.45621 0)
(826.02002 135.7812 0)
(826.02002 136.1062 0)
(826.02002 136.4312 0)
(826.02002 136.7562 0)
(826.02002 137.08121 0)
(826.02002 137.4062 0)
(826.02002 137.7312 0)
(826.02002 138.0562 0)
(826.02002 138.3812 0)
(826.02002 138.70621 0)
(826.02002 139.0312 0)
(826.02002 139.3562 0)
(826.02002 139.6812 0)
(826.02002 140.0062 0)
(826.02002 140.33121 0)
(826.02002 140.6562 0)
(826.02002 140.9812 0)
(826.02002 141.3062 0)
(826.02002 141.6312 0)
(826.02002 141.95621 0)
(826.02002 142.2812 0)
(826.02002 142.6062 0)
(826.02002 142.9312 0)
(826.02002 143.2562 0)
(826.02002 143.58121 0)
(826.02002 143.9062 0)
(826.02002 144.2312 0)
(826.02002 144.5562 0)
(826.02002 144.8812 0)
(826.02002 145.20621 0)
(826.02002 145.5312 0)
(825.37134 145.8562 0)
(825.047 145.8562 0)
(824.72266 145.8562 0)
(824.39832 145.8562 0)
(824.07397 145.8562 0)
(823.74969 145.8562 0)
(823.42535 145.8562 0)
(823.10101 145.8562 0)
(822.77667 145.8562 0)
(822.45233 145.8562 0)
(822.12799 145.8562 0)
(821.80371 145.8562 0)
(821.47937 145.8562 0)
(821.15503 145.8562 0)
(820.83069 145.8562 0)
(820.50635 145.8562 0)
(820.18201 145.8562 0)
(819.85767 145.8562 0)
(819.53339 145.8562 0)
(819.20905 145.8562 0)
(818.8847 145.8562 0)
(818.56036 145.8562 0)
(818.23602 145.8562 0)
(817.91168 145.8562 0)
(817.5874 145.8562 0)
(817.26306 145.8562 0)
(816.93872 145.8562 0)
(816.61438 145.8562 0)
(816.29004 145.8562 0)
(815.9657 145.8562 0)
(815.64142 145.8562 0)
(815.31708 145.8562 0)
(814.99274 145.8562 0)
(814.6684 145.8562 0)
(814.34406 145.8562 0)
(814.01971 145.8562 0)
(813.69537 145.8562 0)
(813.37109 145.8562 0)
(813.04675 145.8562 0)
(812.72241 145.8562 0)
(812.39807 145.8562 0)
(812.07373 145.8562 0)
(811.74939 145.8562 0)
(811.42511 145.8562 0)
(811.10077 145.8562 0)
(810.77643 145.8562 0)
(810.45209 145.8562 0)
(810.12775 145.8562 0)
(809.80341 145.8562 0)
(809.47906 145.8562 0)
(809.15479 145.8562 0)
(808.83044 145.8562 0)
(808.5061 145.8562 0)
(808.18176 145.8562 0)
(807.85742 145.8562 0)
(807.53308 145.8562 0)
(807.2088 145.8562 0)
(806.88446 145.8562 0)
(806.56012 145.8562 0)
(806.23578 145.8562 0)
(805.91144 145.20621 0)
(805.91144 144.8812 0)
(805.91144 144.5562 0)
(805.91144 144.2312 0)
(805.91144 143.9062 0)
(805.91144 143.58121 0)
(805.91144 143.2562 0)
(805.91144 142.9312 0)
(805.91144 142.6062 0)
(805.91144 142.2812 0)
(805.91144 141.95621 0)
(805.91144 141.6312 0)
(805.91144 141.3062 0)
(805.91144 140.9812 0)
(805.91144 140.6562 0)
(805.91144 140.33121 0)
(805.91144 140.0062 0)
(805.91144 139.6812 0)
(805.91144 139.3562 0)
(805.91144 139.0312 0)
(805.91144 138.70621 0)
(805.91144 138.3812 0)
(805.91144 138.0562 0)
(805.91144 137.7312 0)
(805.91144 137.4062 0)
(805.91144 137.08121 0)
(805.91144 136.7562 0)
(805.91144 136.4312 0)
(805.91144 136.1062 0)
(805.91144 135.7812 0)
(805.91144 135.45621 0)
(805.91144 135.1312 0)
(805.91144 134.8062 0)
(805.91144 134.4812 0)
(805.91144 134.1562 0)
(805.91144 133.83121 0)
(805.91144 133.5062 0)
(805.91144 133.1812 0)
(806.56012 170.8562 0)
(806.88446 170.8562 0)
(807.2088 170.8562 0)
(807.53308 170.8562 0)
(807.85742 170.8562 0)
(808.18176 170.8562 0)
(808.5061 170.8562 0)
(808.83044 170.8562 0)
(809.15479 170.8562 0)
(809.47906 170.8562 0)
(809.80341 170.8562 0)
(810.12775 170.8562 0)
(810.45209 170.8562 0)
(810.77643 170.8562 0)
(811.10077 170.8562 0)
(811.42511 170.8562 0)
(811.74939 170.8562 0)
(812.07373 170.8562 0)
(812.39807 170.8562 0)
(812.72241 170.8562 0)
(813.04675 170.8562 0)
(813.37109 170.8562 0)
(813.69537 170.8562 0)
(814.01971 170.8562 0)
(814.34406 170.8562 0)
(814.6684 170.8562 0)
(814.99274 170.8562 0)
(815.31708 170.8562 0)
(815.64142 170.8562 0)
(815.9657 170.8562 0)
(816.29004 170.8562 0)
(816.61438 170.8562 0)
(816.93872 170.8562 0)
(817.26306 170.8562 0)
(817.5874 170.8562 0)
(817.91168 170.8562 0)
(818.23602 170.8562 0)
(818.56036 170.8562 0)
(818.8847 170.8562 0)
(819.20905 170.8562 0)
(819.53339 170.8562 0)
(819.85767 170.8562 0)
(820.18201 170.8562 0)
(820.50635 170.8562 0)
(820.83069 170.8562 0)
(821.15503 170.8562 0)
(821.47937 170.8562 0)
(821.80371 170.8562 0)
(822.12799 170.8562 0)
(822.45233 170.8562 0)
(822.77667 170.8562 0)
(823.10101 170.8562 0)
(823.42535 170.8562 0)
(823.74969 170.8562 0)
(824.07397 170.8562 0)
(824.39832 170.8562 0)
(824.72266 170.8562 0)
(825.047 170.8562 0)
(825.37134 170.8562 0)
(825.69568 170.8562 0)
(826.02002 171.5062 0)
(826.02002 171.83121 0)
(826.02002 172.1562 0)
(826.02002 172.4812 0)
(826.02002 172.8062 0)
(826.02002 173.1312 0)
(826.02002 173.45621 0)
(826.02002 173.7812 0)
(826.02002 174.1062 0)
(826.02002 174.4312 0)
(826.02002 174.7562 0)
(826.02002 175.08121 0)
(826.02002 175.4062 0)
(826.02002 175.7312 0)
(826.02002 176.0562 0)
(826.02002 176.3812 0)
(826.02002 176.70621 0)
(826.02002 177.0312 0)
(826.02002 177.3562 0)
(826.02002 177.6812 0)
(826.02002 178.0062 0)
(826.02002 178.33121 0)
(826.02002 178.6562 0)
(826.02002 178.9812 0)
(826.02002 179.3062 0)
(826.02002 179.6312 0)
(826.02002 179.95621 0)
(826.02002 180.2812 0)
(826.02002 180.6062 0)
(826.02002 180.9312 0)
(826.02002 181.2562 0)
(826.02002 181.58121 0)
(826.02002 181.9062 0)
(826.02002 182.2312 0)
(826.02002 182.5562 0)
(826.02002 182.8812 0)
(826.02002 183.20621 0)
(826.02002 183.5312 0)
(825.37134 183.8562 0)
(825.047 183.8562 0)
(824.72266 183.8562 0)
(824.39832 183.8562 0)
(824.07397 183.8562 0)
(823.74969 183.8562 0)
(823.42535 183.8562 0)
(823.10101 183.8562 0)
(822.77667 183.8562 0)
(822.45233 183.8562 0)
(822.12799 183.8562 0)
(821.80371 183.8562 0)
(821.47937 183.8562 0)
(821.15503 183.8562 0)
(820.83069 183.8562 0)
(820.50635 183.8562 0)
(820.18201 183.8562 0)
(819.85767 183.8562 0)
(819.53339 183.8562 0)
(819.20905 183.8562 0)
(818.8847 183.8562 0)
(818.56036 183.8562 0)
(818.23602 183.8562 0)
(817.91168 183.8562 0)
(817.5874 183.8562 0)
(817.26306 183.8562 0)
(816.93872 183.8562 0)
(816.61438 183.8562 0)
(816.29004 183.8562 0)
(815.9657 183.8562 0)
(815.64142 183.8562 0)
(815.31708 183.8562 0)
(814.99274 183.8562 0)
(814.6684 183.8562 0)
(814.34406 183.8562 0)
(814.01971 183.8562 0)
(813.69537 183.8562 0)
(813.37109 183.8562 0)
(813.04675 183.8562 0)
(812.72241 183.8562 0)
(812.39807 183.8562 0)
(812.07373 183.8562 0)
(811.74939 183.8562 0)
(811.42511 183.8562 0)
(811.10077 183.8562 0)
(810.77643 183.8562 0)
(810.45209 183.8562 0)
(810.12775 183.8562 0)
(809.80341 183.8562 0)
(809.47906 183.8562 0)
(809.15479 183.8562 0)
(808.83044 183.8562 0)
(808.5061 183.8562 0)
(808.18176 183.8562 0)
(807.85742 183.8562 0)
(807.53308 183.8562 0)
(807.2088 183.8562 0)
(806.88446 183.8562 0)
(806.56012 183.8562 0)
(806.23578 183.8562 0)
(805.91144 183.20621 0)
(805.91144 182.8812 0)
(805.91144 182.5562 0)
(805.91144 182.2312 0)
(805.91144 181.9062 0)
(805.91144 181.58121 0)
(805.91144 181.2562 0)
(805.91144 180.9312 0)
(805.91144 180.6062 0)
(805.91144 180.2812 0)
(805.91144 179.95621 0)
(805.91144 179.6312 0)
(805.91144 179.3062 0)
(805.91144 178.9812 0)
(805.91144 178.6562 0)
(805.91144 178.33121 0)
(805.91144 178.0062 0)
(805.91144 177.6812 0)
(805.91144 177.3562 0)
(805.91144 177.0312 0)
(805.91144 176.70621 0)
(805.91144 176.3812 0)
(805.91144 176.0562 0)
(805.91144 175.7312 0)
(805.91144 175.4062 0)
(805.91144 175.08121 0)
(805.91144 174.7562 0)
(805.91144 174.4312 0)
(805.91144 174.1062 0)
(805.91144 173.7812 0)
(805.91144 173.45621 0)
(805.91144 173.1312 0)
(805.91144 172.8062 0)
(805.91144 172.4812 0)
(805.91144 172.1562 0)
(805.91144 171.83121 0)
(805.91144 171.5062 0)
(805.91144 171.1812 0)
(805.91144 132.8562 0.31578946)
(805.91144 132.8562 0.94736844)
(805.91144 132.8562 0.63157892)
(805.91144 132.8562 1.5789474)
(805.91144 132.8562 1.2631578)
(805.91144 132.8562 2.2105262)
(805.91144 132.8562 1.8947369)
(805.91144 132.8562 2.8421052)
(805.91144 132.8562 2.5263157)
(805.91144 132.8562 3.4736843)
(805.91144 132.8562 3.1578948)
(805.91144 132.8562 4.1052632)
(805.91144 132.8562 3.7894738)
(805.91144 132.8562 4.7368422)
(805.91144 132.8562 4.4210525)
(805.91144 132.8562 5.3684211)
(805.91144 132.8562 5.0526314)
(805.91144 132.8562 6)
(805.91144 132.8562 5.6842103)
(805.91144 132.8562 6.6315789)
(805.91144 132.8562 6.3157897)
(805.91144 132.8562 7.2631578)
(805.91144 132.8562 6.9473686)
(805.91144 132.8562 7.8947368)
(805.91144 132.8562 7.5789475)
(805.91144 132.8562 8.5263157)
(805.91144 132.8562 8.2105265)
(805.91144 132.8562 9.1578951)
(805.91144 132.8562 8.8421049)
(805.91144 132.8562 9.7894735)
(805.91144 132.8562 9.4736843)
(805.91144 132.8562 10.105263)
(805.91144 132.8562 11.052631)
(805.91144 132.8562 10.736842)
(805.91144 132.8562 11.368421)
(806.23065 132.8562 12)
(810.38 132.8562 12)
(810.06085 132.8562 12)
(809.74164 132.8562 12)
(809.42249 132.8562 12)
(815.80615 132.8562 12)
(815.48694 132.8562 12)
(826.02002 132.8562 5.6842103)
(826.02002 132.8562 6)
(816.12531 132.8562 12)
(825.38165 132.8562 12)
(825.06244 132.8562 12)
(824.74329 132.8562 12)
(826.02002 132.8562 11.368421)
(826.02002 132.8562 0.31578946)
(826.02002 132.8562 0.63157892)
(826.02002 132.8562 1.2631578)
(826.02002 132.8562 0.94736844)
(826.02002 132.8562 1.8947369)
(826.02002 132.8562 1.5789474)
(826.02002 132.8562 2.5263157)
(826.02002 132.8562 2.2105262)
(826.02002 132.8562 2.8421052)
(826.02002 132.8562 3.4736843)
(826.02002 132.8562 3.1578948)
(826.02002 132.8562 4.1052632)
(826.02002 132.8562 3.7894738)
(826.02002 132.8562 4.7368422)
(826.02002 132.8562 4.4210525)
(826.02002 132.8562 5.0526314)
(826.02002 132.8562 5.3684211)
(826.02002 132.8562 6.3157897)
(826.02002 132.8562 6.9473686)
(826.02002 132.8562 6.6315789)
(826.02002 132.8562 7.2631578)
(826.02002 132.8562 7.8947368)
(826.02002 132.8562 7.5789475)
(826.02002 132.8562 8.5263157)
(826.02002 132.8562 8.2105265)
(826.02002 132.8562 9.1578951)
(826.02002 132.8562 8.8421049)
(826.02002 132.8562 9.4736843)
(826.02002 132.8562 10.105263)
(826.02002 132.8562 9.7894735)
(826.02002 132.8562 10.736842)
(826.02002 132.8562 10.421053)
(826.02002 132.8562 11.052631)
(826.02002 133.17328 12)
(826.02002 133.49034 12)
(826.02002 134.75864 12)
(826.02002 134.44156 12)
(826.02002 134.1245 12)
(826.02002 139.19766 12)
(826.02002 138.88058 12)
(826.02002 145.8562 5.6842103)
(826.02002 145.8562 6)
(826.02002 139.51474 12)
(826.02002 145.8562 8.8421049)
(826.02002 145.8562 9.1578951)
(826.02002 144.90498 12)
(826.02002 144.58791 12)
(826.02002 145.8562 11.052631)
(826.02002 145.8562 11.368421)
(826.02002 145.22206 12)
(826.02002 145.8562 0.31578946)
(826.02002 145.8562 0.94736844)
(826.02002 145.8562 0.63157892)
(826.02002 145.8562 1.5789474)
(826.02002 145.8562 1.2631578)
(826.02002 145.8562 2.2105262)
(826.02002 145.8562 1.8947369)
(826.02002 145.8562 2.8421052)
(826.02002 145.8562 2.5263157)
(826.02002 145.8562 3.4736843)
(826.02002 145.8562 3.1578948)
(826.02002 145.8562 4.1052632)
(826.02002 145.8562 3.7894738)
(826.02002 145.8562 4.7368422)
(826.02002 145.8562 4.4210525)
(826.02002 145.8562 5.3684211)
(826.02002 145.8562 5.0526314)
(826.02002 145.8562 6.6315789)
(826.02002 145.8562 6.3157897)
(826.02002 145.8562 7.2631578)
(826.02002 145.8562 6.9473686)
(826.02002 145.8562 7.8947368)
(826.02002 145.8562 7.5789475)
(826.02002 145.8562 8.5263157)
(826.02002 145.8562 8.2105265)
(826.02002 145.8562 9.7894735)
(826.02002 145.8562 9.4736843)
(826.02002 145.8562 10.105263)
(826.02002 145.8562 10.736842)
(825.70081 145.8562 12)
(821.55145 145.8562 12)
(821.87061 145.8562 12)
(822.18982 145.8562 12)
(822.50897 145.8562 12)
(816.12531 145.8562 12)
(816.44452 145.8562 12)
(805.91144 145.8562 5.6842103)
(805.91144 145.8562 6)
(815.80615 145.8562 12)
(806.5498 145.8562 12)
(806.86902 145.8562 12)
(807.18817 145.8562 12)
(805.91144 145.8562 11.368421)
(805.91144 145.8562 0.31578946)
(805.91144 145.8562 0.63157892)
(805.91144 145.8562 1.2631578)
(805.91144 145.8562 0.94736844)
(805.91144 145.8562 1.8947369)
(805.91144 145.8562 1.5789474)
(805.91144 145.8562 2.5263157)
(805.91144 145.8562 2.2105262)
(805.91144 145.8562 2.8421052)
(805.91144 145.8562 3.4736843)
(805.91144 145.8562 3.1578948)
(805.91144 145.8562 4.1052632)
(805.91144 145.8562 3.7894738)
(805.91144 145.8562 4.7368422)
(805.91144 145.8562 4.4210525)
(805.91144 145.8562 5.0526314)
(805.91144 145.8562 5.3684211)
(805.91144 145.8562 6.3157897)
(805.91144 145.8562 6.9473686)
(805.91144 145.8562 6.6315789)
(805.91144 145.8562 7.2631578)
(805.91144 145.8562 7.8947368)
(805.91144 145.8562 7.5789475)
(805.91144 145.8562 8.5263157)
(805.91144 145.8562 8.2105265)
(805.91144 145.8562 9.1578951)
(805.91144 145.8562 8.8421049)
(805.91144 145.8562 9.4736843)
(805.91144 145.8562 10.105263)
(805.91144 145.8562 9.7894735)
(805.91144 145.8562 10.736842)
(805.91144 145.8562 10.421053)
(805.91144 145.8562 11.052631)
(805.91144 145.53912 12)
(805.91144 145.22206 12)
(805.91144 143.95377 12)
(805.91144 144.27083 12)
(805.91144 144.58791 12)
(805.91144 139.51474 12)
(805.91144 139.83182 12)
(805.91144 139.19766 12)
(805.91144 133.80742 12)
(805.91144 134.1245 12)
(805.91144 133.49034 12)
(806.5498 132.8562 12)
(805.91144 134.44156 12)
(805.91144 134.75864 12)
(805.91144 135.07571 12)
(806.86902 132.8562 12)
(807.18817 132.8562 12)
(807.50739 132.8562 12)
(807.82654 132.8562 12)
(808.14575 132.8562 12)
(805.91144 135.39279 12)
(805.91144 135.70985 12)
(805.91144 136.02693 12)
(805.91144 136.66107 12)
(805.91144 136.34401 12)
(805.91144 136.97815 12)
(805.91144 137.6123 12)
(805.91144 137.29523 12)
(805.91144 137.92937 12)
(805.91144 138.56352 12)
(805.91144 138.24644 12)
(805.91144 138.88058 12)
(808.4649 132.8562 12)
(808.78412 132.8562 12)
(809.10327 132.8562 12)
(810.69922 132.8562 12)
(811.01837 132.8562 12)
(811.33759 132.8562 12)
(811.65674 132.8562 12)
(811.97595 132.8562 12)
(812.2951 132.8562 12)
(812.61432 132.8562 12)
(812.93347 132.8562 12)
(813.25269 132.8562 12)
(813.57184 132.8562 12)
(813.89105 132.8562 12)
(814.21021 132.8562 12)
(814.52942 132.8562 12)
(814.84857 132.8562 12)
(815.16779 132.8562 12)
(805.91144 140.14888 12)
(805.91144 140.78304 12)
(805.91144 140.46596 12)
(805.91144 141.1001 12)
(805.91144 141.73425 12)
(805.91144 141.41718 12)
(805.91144 142.05132 12)
(805.91144 142.68547 12)
(805.91144 142.36839 12)
(805.91144 143.00255 12)
(805.91144 143.63669 12)
(805.91144 143.31961 12)
(805.91144 144.90498 12)
(807.82654 145.8562 12)
(807.50739 145.8562 12)
(815.48694 145.8562 12)
(816.44452 132.8562 12)
(816.76367 132.8562 12)
(817.08289 132.8562 12)
(817.40204 132.8562 12)
(817.72125 132.8562 12)
(818.04041 132.8562 12)
(818.35962 132.8562 12)
(818.67877 132.8562 12)
(818.99799 132.8562 12)
(819.31714 132.8562 12)
(819.63635 132.8562 12)
(819.95551 132.8562 12)
(820.27472 132.8562 12)
(820.59387 132.8562 12)
(820.91309 132.8562 12)
(821.23224 132.8562 12)
(821.55145 132.8562 12)
(821.87061 132.8562 12)
(822.18982 132.8562 12)
(822.50897 132.8562 12)
(822.82819 132.8562 12)
(823.14734 132.8562 12)
(823.46655 132.8562 12)
(823.78571 132.8562 12)
(824.10492 132.8562 12)
(824.42407 132.8562 12)
(826.02002 133.80742 12)
(826.02002 135.07571 12)
(826.02002 135.39279 12)
(826.02002 139.83182 12)
(825.38165 145.8562 12)
(825.06244 145.8562 12)
(805.91144 170.8562 0.31578946)
(805.91144 170.8562 0.94736844)
(805.91144 170.8562 0.63157892)
(805.91144 170.8562 1.5789474)
(805.91144 170.8562 1.2631578)
(805.91144 170.8562 2.2105262)
(805.91144 170.8562 1.8947369)
(805.91144 170.8562 2.8421052)
(805.91144 170.8562 2.5263157)
(805.91144 170.8562 3.4736843)
(805.91144 170.8562 3.1578948)
(805.91144 170.8562 4.1052632)
(805.91144 170.8562 3.7894738)
(805.91144 170.8562 4.7368422)
(805.91144 170.8562 4.4210525)
(805.91144 170.8562 5.3684211)
(805.91144 170.8562 5.0526314)
(805.91144 170.8562 6)
(805.91144 170.8562 5.6842103)
(805.91144 170.8562 6.6315789)
(805.91144 170.8562 6.3157897)
(805.91144 170.8562 7.2631578)
(805.91144 170.8562 6.9473686)
(805.91144 170.8562 7.8947368)
(805.91144 170.8562 7.5789475)
(805.91144 170.8562 8.5263157)
(805.91144 170.8562 8.2105265)
(805.91144 170.8562 9.1578951)
(805.91144 170.8562 8.8421049)
(805.91144 170.8562 9.7894735)
(805.91144 170.8562 9.4736843)
(805.91144 170.8562 10.105263)
(805.91144 170.8562 11.052631)
(805.91144 170.8562 10.736842)
(805.91144 170.8562 11.368421)
(806.23065 170.8562 12)
(810.38 170.8562 12)
(810.06085 170.8562 12)
(809.74164 170.8562 12)
(809.42249 170.8562 12)
(815.80615 170.8562 12)
(815.48694 170.8562 12)
(826.02002 170.8562 5.6842103)
(826.02002 170.8562 6)
(816.12531 170.8562 12)
(825.38165 170.8562 12)
(825.06244 170.8562 12)
(824.74329 170.8562 12)
(826.02002 170.8562 11.368421)
(826.02002 170.8562 0.31578946)
(826.02002 170.8562 0.63157892)
(826.02002 170.8562 1.2631578)
(826.02002 170.8562 0.94736844)
(826.02002 170.8562 1.8947369)
(826.02002 170.8562 1.5789474)
(826.02002 170.8562 2.5263157)
(826.02002 170.8562 2.2105262)
(826.02002 170.8562 2.8421052)
(826.02002 170.8562 3.4736843)
(826.02002 170.8562 3.1578948)
(826.02002 170.8562 4.1052632)
(826.02002 170.8562 3.7894738)
(826.02002 170.8562 4.7368422)
(826.02002 170.8562 4.4210525)
(826.02002 170.8562 5.0526314)
(826.02002 170.8562 5.3684211)
(826.02002 170.8562 6.3157897)
(826.02002 170.8562 6.9473686)
(826.02002 170.8562 6.6315789)
(826.02002 170.8562 7.2631578)
(826.02002 170.8562 7.8947368)
(826.02002 170.8562 7.5789475)
(826.02002 170.8562 8.5263157)
(826.02002 170.8562 8.2105265)
(826.02002 170.8562 9.1578951)
(826.02002 170.8562 8.8421049)
(826.02002 170.8562 9.4736843)
(826.02002 170.8562 10.105263)
(826.02002 170.8562 9.7894735)
(826.02002 170.8562 10.736842)
(826.02002 170.8562 10.421053)
(826.02002 170.8562 11.052631)
(826.02002 171.17328 12)
(826.02002 171.49034 12)
(826.02002 172.75864 12)
(826.02002 172.44156 12)
(826.02002 172.1245 12)
(826.02002 177.19766 12)
(826.02002 176.88058 12)
(826.02002 183.8562 5.6842103)
(826.02002 183.8562 6)
(826.02002 177.51474 12)
(826.02002 183.8562 8.8421049)
(826.02002 183.8562 9.1578951)
(826.02002 182.90498 12)
(826.02002 182.58791 12)
(826.02002 183.8562 11.052631)
(826.02002 183.8562 11.368421)
(826.02002 183.22206 12)
(826.02002 183.8562 0.31578946)
(826.02002 183.8562 0.94736844)
(826.02002 183.8562 0.63157892)
(826.02002 183.8562 1.5789474)
(826.02002 183.8562 1.2631578)
(826.02002 183.8562 2.2105262)
(826.02002 183.8562 1.8947369)
(826.02002 183.8562 2.8421052)
(826.02002 183.8562 2.5263157)
(826.02002 183.8562 3.4736843)
(826.02002 183.8562 3.1578948)
(826.02002 183.8562 4.1052632)
(826.02002 183.8562 3.7894738)
(826.02002 183.8562 4.7368422)
(826.02002 183.8562 4.4210525)
(826.02002 183.8562 5.3684211)
(826.02002 183.8562 5.0526314)
(826.02002 183.8562 6.6315789)
(826.02002 183.8562 6.3157897)
(826.02002 183.8562 7.2631578)
(826.02002 183.8562 6.9473686)
(826.02002 183.8562 7.8947368)
(826.02002 183.8562 7.5789475)
(826.02002 183.8562 8.5263157)
(826.02002 183.8562 8.2105265)
(826.02002 183.8562 9.7894735)
(826.02002 183.8562 9.4736843)
(826.02002 183.8562 10.105263)
(826.02002 183.8562 10.736842)
(825.70081 183.8562 12)
(821.55145 183.8562 12)
(821.87061 183.8562 12)
(822.18982 183.8562 12)
(822.50897 183.8562 12)
(816.12531 183.8562 12)
(816.44452 183.8562 12)
(805.91144 183.8562 5.6842103)
(805.91144 183.8562 6)
(815.80615 183.8562 12)
(806.5498 183.8562 12)
(806.86902 183.8562 12)
(807.18817 183.8562 12)
(805.91144 183.8562 11.368421)
(805.91144 183.8562 0.31578946)
(805.91144 183.8562 0.63157892)
(805.91144 183.8562 1.2631578)
(805.91144 183.8562 0.94736844)
(805.91144 183.8562 1.8947369)
(805.91144 183.8562 1.5789474)
(805.91144 183.8562 2.5263157)
(805.91144 183.8562 2.2105262)
(805.91144 183.8562 2.8421052)
(805.91144 183.8562 3.4736843)
(805.91144 183.8562 3.1578948)
(805.91144 183.8562 4.1052632)
(805.91144 183.8562 3.7894738)
(805.91144 183.8562 4.7368422)
(805.91144 183.8562 4.4210525)
(805.91144 183.8562 5.0526314)
(805.91144 183.8562 5.3684211)
(805.91144 183.8562 6.3157897)
(805.91144 183.8562 6.9473686)
(805.91144 183.8562 6.6315789)
(805.91144 183.8562 7.2631578)
(805.91144 183.8562 7.8947368)
(805.91144 183.8562 7.5789475)
(805.91144 183.8562 8.5263157)
(805.91144 183.8562 8.2105265)
(805.91144 183.8562 9.1578951)
(805.91144 183.8562 8.8421049)
(805.91144 183.8562 9.4736843)
(805.91144 183.8562 10.105263)
(805.91144 183.8562 9.7894735)
(805.91144 183.8562 10.736842)
(805.91144 183.8562 10.421053)
(805.91144 183.8562 11.052631)
(805.91144 183.53912 12)
(805.91144 183.22206 12)
(805.91144 181.95377 12)
(805.91144 182.27083 12)
(805.91144 182.58791 12)
(805.91144 177.51474 12)
(805.91144 177.83182 12)
(805.91144 177.19766 12)
(805.91144 171.80742 12)
(805.91144 172.1245 12)
(805.91144 171.49034 12)
(806.5498 170.8562 12)
(805.91144 172.44156 12)
(805.91144 172.75864 12)
(805.91144 173.07571 12)
(806.86902 170.8562 12)
(807.18817 170.8562 12)
(807.50739 170.8562 12)
(807.82654 170.8562 12)
(808.14575 170.8562 12)
(805.91144 173.39279 12)
(805.91144 173.70985 12)
(805.91144 174.02693 12)
(805.91144 174.66107 12)
(805.91144 174.34401 12)
(805.91144 174.97815 12)
(805.91144 175.6123 12)
(805.91144 175.29523 12)
(805.91144 175.92937 12)
(805.91144 176.56352 12)
(805.91144 176.24644 12)
(805.91144 176.88058 12)
(808.4649 170.8562 12)
(808.78412 170.8562 12)
(809.10327 170.8562 12)
(810.69922 170.8562 12)
(811.01837 170.8562 12)
(811.33759 170.8562 12)
(811.65674 170.8562 12)
(811.97595 170.8562 12)
(812.2951 170.8562 12)
(812.61432 170.8562 12)
(812.93347 170.8562 12)
(813.25269 170.8562 12)
(813.57184 170.8562 12)
(813.89105 170.8562 12)
(814.21021 170.8562 12)
(814.52942 170.8562 12)
(814.84857 170.8562 12)
(815.16779 170.8562 12)
(805.91144 178.14888 12)
(805.91144 178.78304 12)
(805.91144 178.46596 12)
(805.91144 179.1001 12)
(805.91144 179.73425 12)
(805.91144 179.41718 12)
(805.91144 180.05132 12)
(805.91144 180.68547 12)
(805.91144 180.36839 12)
(805.91144 181.00255 12)
(805.91144 181.63669 12)
(805.91144 181.31961 12)
(805.91144 182.90498 12)
(807.82654 183.8562 12)
(807.50739 183.8562 12)
(815.48694 183.8562 12)
(816.44452 170.8562 12)
(816.76367 170.8562 12)
(817.08289 170.8562 12)
(817.40204 170.8562 12)
(817.72125 170.8562 12)
(818.04041 170.8562 12)
(818.35962 170.8562 12)
(818.67877 170.8562 12)
(818.99799 170.8562 12)
(819.31714 170.8562 12)
(819.63635 170.8562 12)
(819.95551 170.8562 12)
(820.27472 170.8562 12)
(820.59387 170.8562 12)
(820.91309 170.8562 12)
(821.23224 170.8562 12)
(821.55145 170.8562 12)
(821.87061 170.8562 12)
(822.18982 170.8562 12)
(822.50897 170.8562 12)
(822.82819 170.8562 12)
(823.14734 170.8562 12)
(823.46655 170.8562 12)
(823.78571 170.8562 12)
(824.10492 170.8562 12)
(824.42407 170.8562 12)
(826.02002 171.80742 12)
(826.02002 173.07571 12)
(826.02002 173.39279 12)
(826.02002 177.83182 12)
(825.38165 183.8562 12)
(825.06244 183.8562 12)
(805.91144 132.8562 10.421053)
(826.02002 136.02693 12)
(826.02002 135.70985 12)
(826.02002 136.66107 12)
(826.02002 136.34401 12)
(826.02002 137.29523 12)
(826.02002 136.97815 12)
(826.02002 137.6123 12)
(826.02002 138.24644 12)
(826.02002 137.92937 12)
(826.02002 138.56352 12)
(826.02002 140.14888 12)
(826.02002 140.78304 12)
(826.02002 140.46596 12)
(826.02002 141.41718 12)
(826.02002 141.1001 12)
(826.02002 142.05132 12)
(826.02002 141.73425 12)
(826.02002 142.36839 12)
(826.02002 143.00255 12)
(826.02002 142.68547 12)
(826.02002 143.63669 12)
(826.02002 143.31961 12)
(826.02002 143.95377 12)
(826.02002 145.8562 10.421053)
(826.02002 144.27083 12)
(824.74329 145.8562 12)
(824.10492 145.8562 12)
(824.42407 145.8562 12)
(823.46655 145.8562 12)
(823.78571 145.8562 12)
(822.82819 145.8562 12)
(823.14734 145.8562 12)
(821.23224 145.8562 12)
(820.59387 145.8562 12)
(820.91309 145.8562 12)
(819.95551 145.8562 12)
(820.27472 145.8562 12)
(819.31714 145.8562 12)
(819.63635 145.8562 12)
(818.67877 145.8562 12)
(818.99799 145.8562 12)
(818.04041 145.8562 12)
(818.35962 145.8562 12)
(817.40204 145.8562 12)
(817.72125 145.8562 12)
(816.76367 145.8562 12)
(817.08289 145.8562 12)
(814.84857 145.8562 12)
(815.16779 145.8562 12)
(814.21021 145.8562 12)
(814.52942 145.8562 12)
(813.57184 145.8562 12)
(813.89105 145.8562 12)
(812.93347 145.8562 12)
(813.25269 145.8562 12)
(812.2951 145.8562 12)
(812.61432 145.8562 12)
(811.65674 145.8562 12)
(811.97595 145.8562 12)
(811.01837 145.8562 12)
(811.33759 145.8562 12)
(810.69922 145.8562 12)
(810.38 145.8562 12)
(810.06085 145.8562 12)
(809.42249 145.8562 12)
(809.74164 145.8562 12)
(808.78412 145.8562 12)
(809.10327 145.8562 12)
(808.14575 145.8562 12)
(808.4649 145.8562 12)
(805.91144 170.8562 10.421053)
(826.02002 174.02693 12)
(826.02002 173.70985 12)
(826.02002 174.66107 12)
(826.02002 174.34401 12)
(826.02002 175.29523 12)
(826.02002 174.97815 12)
(826.02002 175.6123 12)
(826.02002 176.24644 12)
(826.02002 175.92937 12)
(826.02002 176.56352 12)
(826.02002 178.14888 12)
(826.02002 178.78304 12)
(826.02002 178.46596 12)
(826.02002 179.41718 12)
(826.02002 179.1001 12)
(826.02002 180.05132 12)
(826.02002 179.73425 12)
(826.02002 180.36839 12)
(826.02002 181.00255 12)
(826.02002 180.68547 12)
(826.02002 181.63669 12)
(826.02002 181.31961 12)
(826.02002 181.95377 12)
(826.02002 183.8562 10.421053)
(826.02002 182.27083 12)
(824.74329 183.8562 12)
(824.10492 183.8562 12)
(824.42407 183.8562 12)
(823.46655 183.8562 12)
(823.78571 183.8562 12)
(822.82819 183.8562 12)
(823.14734 183.8562 12)
(821.23224 183.8562 12)
(820.59387 183.8562 12)
(820.91309 183.8562 12)
(819.95551 183.8562 12)
(820.27472 183.8562 12)
(819.31714 183.8562 12)
(819.63635 183.8562 12)
(818.67877 183.8562 12)
(818.99799 183.8562 12)
(818.04041 183.8562 12)
(818.35962 183.8562 12)
(817.40204 183.8562 12)
(817.72125 183.8562 12)
(816.76367 183.8562 12)
(817.08289 183.8562 12)
(814.84857 183.8562 12)
(815.16779 183.8562 12)
(814.21021 183.8562 12)
(814.52942 183.8562 12)
(813.57184 183.8562 12)
(813.89105 183.8562 12)
(812.93347 183.8562 12)
(813.25269 183.8562 12)
(812.2951 183.8562 12)
(812.61432 183.8562 12)
(811.65674 183.8562 12)
(811.97595 183.8562 12)
(811.01837 183.8562 12)
(811.33759 183.8562 12)
(810.69922 183.8562 12)
(810.38 183.8562 12)
(810.06085 183.8562 12)
(809.42249 183.8562 12)
(809.74164 183.8562 12)
(808.78412 183.8562 12)
(809.10327 183.8562 12)
(808.14575 183.8562 12)
(808.4649 183.8562 12)
)


// edges:

1112
(
(416 8)
(417 418)
(418 416)
(419 420)
(421 422)
(422 419)
(420 417)
(423 424)
(425 426)
(426 423)
(427 428)
(429 430)
(430 427)
(428 425)
(424 421)
(431 432)
(433 434)
(434 431)
(435 436)
(437 438)
(438 435)
(436 433)
(439 440)
(441 442)
(442 439)
(443 444)
(445 446)
(447 445)
(446 443)
(444 441)
(440 437)
(432 429)
(448 449)
(0 450)
(451 0)
(452 453)
(454 455)
(456 457)
(458 459)
(460 456)
(1 461)
(462 463)
(464 1)
(465 9)
(466 465)
(467 468)
(469 470)
(470 467)
(468 466)
(471 472)
(473 471)
(474 475)
(476 477)
(477 474)
(475 473)
(472 469)
(478 479)
(480 478)
(458 481)
(482 459)
(481 480)
(483 484)
(485 483)
(486 487)
(488 489)
(489 486)
(487 485)
(484 482)
(479 476)
(490 491)
(492 490)
(493 494)
(495 496)
(496 493)
(494 492)
(464 497)
(498 1)
(499 498)
(500 501)
(501 502)
(503 504)
(505 506)
(507 503)
(508 509)
(510 511)
(512 513)
(514 510)
(2 514)
(513 2)
(515 10)
(516 517)
(517 515)