/*--------------------------------*- C++ -*----------------------------------*\
  =========                 |
  \\      /  F ield         | OpenFOAM: The Open Source CFD Toolbox
   \\    /   O peration     | Website:  https://openfoam.org
    \\  /    A nd           | Version:  8
     \\/     M anipulation  |
\*---------------------------------------------------------------------------*/
/*   Windows 32 and 64 bit porting by blueCAPE: http://www.bluecape.com.pt   *\
|  Based on Windows porting (2.0.x v4) by Symscape: http://www.symscape.com   |
\*---------------------------------------------------------------------------*/
FoamFile
{
    version     2.0;
    format      ascii;
    class       polyBoundaryMesh;
    location    "constant/vegetation/polyMesh";
    object      boundary;
}
// * * * * * * * * * * * * * * * * * * * * * * * * * * * * * * * * * * * * * //

15
(
    left
    {
        type            mappedPatch;
        inGroups        List<word> 1(mappedPatch);
        nFaces          0;
        startFace       15704;
        sampleMode      nearestPatchFace;
        sampleRegion    air;
        samplePatch     left;
    }
    right
    {
        type            mappedPatch;
        inGroups        List<word> 1(mappedPatch);
        nFaces          0;
        startFace       15704;
        sampleMode      nearestPatchFace;
        sampleRegion    air;
        samplePatch     right;
    }
    back
    {
        type            mappedPatch;
        inGroups        List<word> 1(mappedPatch);
        nFaces          0;
        startFace       15704;
        sampleMode      nearestPatchFace;
        sampleRegion    air;
        samplePatch     back;
    }
    front
    {
        type            mappedPatch;
        inGroups        List<word> 1(mappedPatch);
        nFaces          0;
        startFace       15704;
        sampleMode      nearestPatchFace;
        sampleRegion    air;
        samplePatch     front;
    }
    bottom
    {
        type            mappedWall;
        inGroups        List<word> 
2
(
wall
mappedPatch
)
;
        nFaces          353;
        startFace       15704;
        sampleMode      nearestPatchFace;
        sampleRegion    air;
        samplePatch     bottom;
    }
    top
    {
        type            mappedPatch;
        inGroups        List<word> 1(mappedPatch);
        nFaces          0;
        startFace       16057;
        sampleMode      nearestPatchFace;
        sampleRegion    air;
        samplePatch     top;
    }
    Building
    {
        type            mappedWall;
        inGroups        List<word> 
2
(
wall
mappedPatch
)
;
        nFaces          538;
        startFace       16057;
        sampleMode      nearestPatchFace;
        sampleRegion    air;
        samplePatch     Building;
    }
    air_to_vegetation
    {
        type            mappedWall;
        inGroups        List<word> 
2
(
wall
mappedPatch
)
;
        nFaces          208;
        startFace       16595;
        sampleMode      nearestCell;
        sampleRegion    air;
        offsetMode      uniform;
        offset          (0 0 0);
    }
    procBoundary6to0
    {
        type            processor;
        inGroups        List<word> 1(processor);
        nFaces          22;
        startFace       16803;
        matchTolerance  0.0001;
        myProcNo        6;
        neighbProcNo    0;
    }
    procBoundary6to1
    {
        type            processor;
        inGroups        List<word> 1(processor);
        nFaces          12;
        startFace       16825;
        matchTolerance  0.0001;
        myProcNo        6;
        neighbProcNo    1;
    }
    procBoundary6to7
    {
        type            processor;
        inGroups        List<word> 1(processor);
        nFaces          243;
        startFace       16837;
        matchTolerance  0.0001;
        myProcNo        6;
        neighbProcNo    7;
    }
    procBoundary6to8
    {
        type            processor;
        inGroups        List<word> 1(processor);
        nFaces          204;
        startFace       17080;
        matchTolerance  0.0001;
        myProcNo        6;
        neighbProcNo    8;
    }
    procBoundary6to9
    {
        type            processor;
        inGroups        List<word> 1(processor);
        nFaces          6;
        startFace       17284;
        matchTolerance  0.0001;
        myProcNo        6;
        neighbProcNo    9;
    }
    procBoundary6to10
    {
        type            processor;
        inGroups        List<word> 1(processor);
        nFaces          93;
        startFace       17290;
        matchTolerance  0.0001;
        myProcNo        6;
        neighbProcNo    10;
    }
    procBoundary6to11
    {
        type            processor;
        inGroups        List<word> 1(processor);
        nFaces          173;
        startFace       17383;
        matchTolerance  0.0001;
        myProcNo        6;
        neighbProcNo    11;
    }
)

// ************************************************************************* //
