/*--------------------------------*- C++ -*----------------------------------*\
  =========                 |
  \\      /  F ield         | OpenFOAM: The Open Source CFD Toolbox
   \\    /   O peration     | Website:  https://openfoam.org
    \\  /    A nd           | Version:  8
     \\/     M anipulation  |
\*---------------------------------------------------------------------------*/
/*   Windows 32 and 64 bit porting by blueCAPE: http://www.bluecape.com.pt   *\
|  Based on Windows porting (2.0.x v4) by Symscape: http://www.symscape.com   |
\*---------------------------------------------------------------------------*/
FoamFile
{
    version     2.0;
    format      ascii;
    class       polyBoundaryMesh;
    location    "constant/air/polyMesh";
    object      boundary;
}
// * * * * * * * * * * * * * * * * * * * * * * * * * * * * * * * * * * * * * //

13
(
    left
    {
        type            patch;
        nFaces          63;
        startFace       15203;
    }
    right
    {
        type            patch;
        nFaces          102;
        startFace       15266;
    }
    back
    {
        type            patch;
        nFaces          0;
        startFace       15368;
    }
    front
    {
        type            patch;
        nFaces          98;
        startFace       15368;
    }
    bottom
    {
        type            wall;
        inGroups        List<word> 1(wall);
        nFaces          333;
        startFace       15466;
    }
    top
    {
        type            patch;
        nFaces          161;
        startFace       15799;
    }
    Building
    {
        type            mappedWall;
        inGroups        List<word> 
2
(
wall
mappedPatch
)
;
        nFaces          556;
        startFace       15960;
        sampleMode      nearestPatchFace;
        sampleRegion    Building;
        samplePatch     buildings_to_air;
    }
    procBoundary0to1
    {
        type            processor;
        inGroups        List<word> 1(processor);
        nFaces          106;
        startFace       16516;
        matchTolerance  0.0001;
        myProcNo        0;
        neighbProcNo    1;
    }
    procBoundary0to2
    {
        type            processor;
        inGroups        List<word> 1(processor);
        nFaces          191;
        startFace       16622;
        matchTolerance  0.0001;
        myProcNo        0;
        neighbProcNo    2;
    }
    procBoundary0to4
    {
        type            processor;
        inGroups        List<word> 1(processor);
        nFaces          11;
        startFace       16813;
        matchTolerance  0.0001;
        myProcNo        0;
        neighbProcNo    4;
    }
    procBoundary0to5
    {
        type            processor;
        inGroups        List<word> 1(processor);
        nFaces          285;
        startFace       16824;
        matchTolerance  0.0001;
        myProcNo        0;
        neighbProcNo    5;
    }
    procBoundary0to7
    {
        type            processor;
        inGroups        List<word> 1(processor);
        nFaces          20;
        startFace       17109;
        matchTolerance  0.0001;
        myProcNo        0;
        neighbProcNo    7;
    }
    procBoundary0to10
    {
        type            processor;
        inGroups        List<word> 1(processor);
        nFaces          139;
        startFace       17129;
        matchTolerance  0.0001;
        myProcNo        0;
        neighbProcNo    10;
    }
)

// ************************************************************************* //
