/*--------------------------------*- C++ -*----------------------------------*\
  =========                 |
  \\      /  F ield         | OpenFOAM: The Open Source CFD Toolbox
   \\    /   O peration     | Website:  https://openfoam.org
    \\  /    A nd           | Version:  8
     \\/     M anipulation  |
\*---------------------------------------------------------------------------*/
/*   Windows 32 and 64 bit porting by blueCAPE: http://www.bluecape.com.pt   *\
|  Based on Windows porting (2.0.x v4) by Symscape: http://www.symscape.com   |
\*---------------------------------------------------------------------------*/
FoamFile
{
    version     2.0;
    format      ascii;
    class       labelListList;
    location    "constant/vegetation";
    object      finalAgglom;
}
// * * * * * * * * * * * * * * * * * * * * * * * * * * * * * * * * * * * * * //


14
(
0()
0()
0()
0()

492
(
0
1
0
2
3
4
3
5
4
2
6
7
8
3
9
10
10
11
12
6
5
3
13
14
10
10
15
12
11
16
17
17
9
8
8
8
18
16
19
19
19
20
20
4
19
21
22
9
1
23
24
25
25
26
27
28
28
24
29
26
30
30
31
26
20
20
9
27
31
30
30
32
32
1
33
34
35
36
37
33
1
35
38
39
40
36
41
37
42
43
44
45
41
46
46
47
40
39
37
48
43
49
49
50
43
43
50
44
44
44
46
46
51
50
52
40
2
21
21
22
22
16
4
53
53
21
13
13
6
6
2
54
22
22
53
53
9
11
11
55
17
17
12
13
5
5
54
54
54
19
12
14
14
14
16
56
25
25
25
25
23
7
27
27
27
28
24
24
24
24
28
29
29
29
33
33
26
31
31
31
57
28
41
34
34
34
36
45
45
38
38
38
39
52
39
49
49
36
58
58
37
45
45
45
46
41
41
40
47
47
48
48
37
43
48
43
50
49
49
52
52
43
7
7
7
23
23
23
39
35
35
59
59
59
60
60
60
60
61
15
56
56
62
55
55
63
64
65
63
56
15
15
18
42
51
51
65
66
18
63
55
55
62
62
62
63
18
18
64
56
66
56
56
65
51
58
58
67
67
67
66
66
67
65
65
65
66
66
68
68
68
68
55
55
59
69
42
35
69
35
35
42
70
70
69
69
47
61
71
64
64
72
72
32
32
73
73
74
75
70
76
77
71
78
72
72
79
74
80
81
82
83
77
76
73
84
85
86
80
85
84
83
82
86
85
57
78
87
87
77
57
88
88
78
82
89
82
90
76
91
91
91
91
76
92
92
92
93
92
92
84
87
93
81
94
86
95
96
97
98
96
99
89
94
81
100
101
83
90
101
100
96
96
96
100
99
99
73
79
87
102
79
79
80
79
74
79
79
80
98
99
83
77
91
91
93
86
84
85
86
93
70
78
78
88
57
85
71
71
88
97
97
78
89
97
89
76
91
76
86
81
94
95
95
95
103
103
96
98
96
98
94
103
103
100
100
100
101
101
100
74
102
72
72
72
90
90
90
61
104
104
104
61
61
102
102
75
75
75
75
105
105
104
105
105
105
69
0
69
69
69
0
)

0()

295
(
0
1
2
3
4
5
6
7
8
9
10
11
12
13
14
15
16
17
18
19
20
21
22
23
24
25
26
27
28
29
30
31
32
33
34
35
36
37
38
39
40
41
42
43
44
45
46
47
48
49
50
51
52
53
54
55
56
57
58
59
60
61
62
63
64
65
66
67
68
69
70
71
72
73
74
75
76
77
78
79
80
81
82
83
84
85
86
87
88
89
90
91
92
93
94
95
96
97
98
99
100
101
102
103
104
105
106
107
108
109
110
111
112
113
114
115
116
117
118
119
120
121
122
123
124
125
126
127
128
129
130
131
132
133
134
135
136
137
138
139
140
141
142
143
144
145
146
147
148
149
150
151
152
153
154
155
156
157
158
159
160
161
162
163
164
165
166
167
168
169
170
171
172
173
174
175
176
177
178
179
180
181
182
183
184
185
186
187
188
189
190
191
192
193
194
195
196
197
198
199
200
201
202
203
204
205
206
207
208
209
210
211
212
213
214
215
216
217
218
219
220
221
222
223
224
225
226
227
228
229
230
231
232
233
234
235
236
237
238
239
240
241
242
243
244
245
246
247
248
249
250
251
252
253
254
255
256
257
258
259
260
261
262
263
264
265
266
267
268
269
270
271
272
273
274
275
276
277
278
279
280
281
282
283
284
285
286
287
288
289
290
291
292
293
294
)


330
(
0
1
2
3
3
4
5
0
0
6
1
6
7
8
8
9
9
3
3
10
10
11
12
6
6
8
13
14
14
14
14
15
5
15
5
13
16
17
16
17
12
5
13
12
18
19
20
21
22
23
19
24
25
24
24
24
18
19
26
26
27
22
22
25
18
20
28
29
28
30
30
30
29
31
2
31
32
31
31
33
33
2
1
2
10
1
34
34
10
34
34
7
32
9
32
32
9
35
11
11
10
11
1
6
35
33
33
35
4
4
8
4
0
36
37
16
36
37
38
39
16
39
15
4
16
15
17
17
36
13
39
16
39
17
17
37
36
16
36
12
12
38
12
38
38
37
36
40
28
40
21
21
27
27
21
18
26
26
19
27
25
23
22
22
28
20
40
30
20
23
25
40
23
20
28
22
21
28
21
29
29
21
19
21
7
41
41
35
7
41
3
11
41
11
11
3
11
42
43
44
45
46
43
44
45
46
47
47
47
47
48
48
49
50
50
51
49
49
49
52
43
52
53
54
54
53
45
46
51
48
55
56
57
58
59
60
59
61
56
56
62
63
64
63
63
61
62
57
58
65
58
66
58
67
67
66
66
57
64
42
42
61
60
68
68
50
54
69
43
44
52
70
45
53
52
50
53
50
53
52
54
69
46
43
53
48
51
69
70
44
70
55
70
55
51
69
55
67
56
65
67
64
60
65
60
62
57
63
63
63
63
62
66
63
57
67
67
65
59
42
61
61
68
68
67
64
59
59
59
59
)


302
(
0
1
2
3
4
5
6
7
8
9
10
11
12
13
14
15
16
17
18
19
20
21
22
23
24
25
26
27
28
29
30
31
32
33
34
35
36
37
38
39
40
41
42
43
44
45
46
47
48
49
50
51
52
53
54
55
56
57
58
59
60
61
62
63
64
65
66
67
68
69
70
71
72
73
74
75
76
77
78
79
80
81
82
83
84
85
86
87
88
89
90
91
92
93
94
95
96
97
98
99
100
101
102
103
104
105
106
107
108
109
110
111
112
113
114
115
116
117
118
119
120
121
122
123
124
125
126
127
128
129
130
131
132
133
134
135
136
137
138
139
140
141
142
143
144
145
146
147
148
149
150
151
152
153
154
155
156
157
158
159
160
161
162
163
164
165
166
167
168
169
170
171
172
173
174
175
176
177
178
179
180
181
182
183
184
185
186
187
188
189
190
191
192
193
194
195
196
197
198
199
200
201
202
203
204
205
206
207
208
209
210
211
212
213
214
215
216
217
218
219
220
221
222
223
224
225
226
227
228
229
230
231
232
233
234
235
236
237
238
239
240
241
242
243
244
245
246
247
248
249
250
251
252
253
254
255
256
257
258
259
260
261
262
263
264
265
266
267
268
269
270
271
272
273
274
275
276
277
278
279
280
281
282
283
284
285
286
287
288
289
290
291
292
293
294
295
296
297
298
299
300
301
)


374
(
0
1
2
3
4
5
6
7
8
9
10
11
12
13
14
15
16
17
18
19
20
21
22
23
24
25
26
27
28
29
30
31
32
33
34
35
36
37
38
39
40
41
42
43
44
45
46
47
48
49
50
51
52
53
54
55
56
57
58
59
60
61
62
63
64
65
66
67
68
69
70
71
72
73
74
75
76
77
78
79
80
81
82
83
84
85
86
87
88
89
90
91
92
93
94
95
96
97
98
99
100
101
102
103
104
105
106
107
108
109
110
111
112
113
114
115
116
117
118
119
120
121
122
123
124
125
126
127
128
129
130
131
132
133
134
135
136
137
138
139
140
141
142
143
144
145
146
147
148
149
150
151
152
153
154
155
156
157
158
159
160
161
162
163
164
165
166
167
168
169
170
171
172
173
174
175
176
177
178
179
180
181
182
183
184
185
186
187
188
189
190
191
192
193
194
195
196
197
198
199
200
201
202
203
204
205
206
207
208
209
210
211
212
213
214
215
216
217
218
219
220
221
222
223
224
225
226
227
228
229
230
231
232
233
234
235
236
237
238
239
240
241
242
243
244
245
246
247
248
249
250
251
252
253
254
255
256
257
258
259
260
261
262
263
264
265
266
267
268
269
270
271
272
273
274
275
276
277
278
279
280
281
282
283
284
285
286
287
288
289
290
291
292
293
294
295
296
297
298
299
300
301
302
303
304
305
306
307
308
309
310
311
312
313
314
315
316
317
318
319
320
321
322
323
324
325
326
327
328
329
330
331
332
333
334
335
336
337
338
339
340
341
342
343
344
345
346
347
348
349
350
351
352
353
354
355
356
357
358
359
360
361
362
363
364
365
366
367
368
369
370
371
372
373
)


16
(
0
1
2
3
4
5
6
7
8
9
10
11
12
13
14
15
)


12
(
0
1
2
3
4
5
6
7
8
9
10
11
)


17
(
0
1
2
3
4
5
6
7
8
9
10
11
12
13
14
15
16
)

2(0 1)
)


// ************************************************************************* //
