/*--------------------------------*- C++ -*----------------------------------*\
  =========                 |
  \\      /  F ield         | OpenFOAM: The Open Source CFD Toolbox
   \\    /   O peration     | Website:  https://openfoam.org
    \\  /    A nd           | Version:  8
     \\/     M anipulation  |
\*---------------------------------------------------------------------------*/
/*   Windows 32 and 64 bit porting by blueCAPE: http://www.bluecape.com.pt   *\
|  Based on Windows porting (2.0.x v4) by Symscape: http://www.symscape.com   |
\*---------------------------------------------------------------------------*/
FoamFile
{
    version     2.0;
    format      ascii;
    class       scalarListList;
    location    "constant/vegetation";
    object      kcLAIboundary;
}
// * * * * * * * * * * * * * * * * * * * * * * * * * * * * * * * * * * * * * //


5
(

472
(
0
0
0.0019196714
1.0968293
0.61065391
0
0
0.034888817
0.21445536
0.69803503
0.12288659
0.52099769
0.58459897
0.0051204995
0.58925669
0.065589602
1.040701
1.1411633
0.80361337
0.83488309
0.95366022
0.072247259
0.30242714
0.0019319684
0.19566081
0
0.58757024
1.0590705
0.51420443
0.39262949
0.1176183
0.42139515
0.092834718
0.041689411
0
0
0
0
0
0
0
0
0
0
0
0
0
0
0
0
0
0
0
0.4580493
1.0836908
1000
0.346722
0.069510121
0
1000
1000
0.02521777
0.00036258346
0.8183556
0.04100887
1000
1000
1000
1000
0
0
0.14618468
0.12875019
0.12773516
0.213495
0.05409602
0.26079608
0.45353807
0
0.3486722
0.45364239
0.18525633
0.23222788
0.32021804
0.48238459
0.24293177
0.57033022
0.74936752
0.43723904
0
0
0.073704993
0.81748404
0.78979079
0.47474397
0.90012565
1.0802652
0
0.96786529
1.1116908
0.5212627
0.0080021642
0.20539704
0.49821952
0.047029194
0.10187679
1000
1000
1000
1000
1000
1000
1000
1000
1000
1000
1000
1000
1000
1000
1000
1000
1000
1000
1000
1000
1000
1000
1000
1000
1000
1000
1000
1000
1000
1000
1000
1000
1000
1000
1000
1000
1000
1000
1000
1000
1000
1000
1000
1000
1000
1000
1000
1000
1000
1000
1000
1000
1000
1000
1000
1000
1000
1000
1000
1000
1000
1000
1000
1000
1000
1000
1000
1000
1000
1000
1000
1000
1000
1000
1000
1000
1000
1000
1000
1000
1000
1000
1000
1000
1000
1000
1000
1000
1000
1000
1000
1000
1000
1000
1000
1000
1000
1000
1000
1000
1000
1000
1000
1000
1000
1000
1000
1000
1000
1000
1000
1000
1000
1000
1000
1000
1000
1000
1000
1000
1000
1000
1000
1000
1000
1000
0
0.0046963595
0
0
0
0
0
0
0
0.00085213214
1.172839e-05
0
0
0
0
0.010074176
0
0
0
0
0
0.00060633018
0.0062736789
0
0
0
0
0
0
0
0
0
0
0
0
0
0
0
0
0
0
0
1.1502561e-06
0.00075917743
0
0
0
0
0
0.014918072
0
0
0.0087071207
0
0
0
0
0
0
0
0
0
0
0
0
0
0
0
0
0
0
0
0.013227421
0.015660249
0
0
0
0
0
0
0
0
0
0
0
0
0
0
0
0
0
0
0
0
0
0
0
1000
1000
0
0
0
0
0
0
1000
0
0
1000
0
0
0
0
0
0
0
0
0
1000
0
0
1000
1000
0
0
0
0
0
0
0
0
0
0
0
0
0
0
0
0
0
0
0
0
0
1000
1000
0
1000
0
1000
0
1000
0
0
0
1000
0
1000
0
1000
1000
1000
0
1000
0
0
0
0
0
0.2962253
0.49639533
0.3767384
1.0649574
0.54817002
0.45987981
0.29556626
0.40304834
0.55909621
0.65830643
0.38059674
0.34199738
0.76626113
0.69438216
0.18842056
0.26269874
0.30610587
0.3437647
0
0
0
0
0
0
0
0
0
0
0
0
0
0.7835858
0.87322939
0.78840285
0.5035356
0.49505418
0.4665834
0.59372559
0.78019763
0.20606077
0
0.61798714
0.81701507
0.32421855
0.22496196
0.37213129
0.50931595
0.23207145
0.48810774
0.15253308
0.17046783
0.69791113
0.14406477
0.29712514
0.11693132
0.69319833
0.38329324
0.37418602
0.24539697
0.69340447
0.52187011
0.58232319
0.2818226
0.31388866
0.96330354
0.45118934
0.23294371
0.4933284
1.0483569
0.34113216
0.34373431
)


472
(
0
0
0
0.8935525
0.75128879
0
0
0.00020376668
0.071938879
1.0108057
0.083408523
0.76761789
0.69344626
0
0.63717822
0.11282449
0.9117807
1.6758243
1.4090432
0.70400664
1.0465711
0.0075768464
0.084852289
0
0.51747251
0
0.41864968
0.98254015
0.61345835
0.16410926
0.019748292
0.25698786
0.0088672264
0.0074924105
0
0
0.00018983486
0
0
0
0
0.013167531
0
0
0
0
0
0
0
0
0
0
0
0.53174536
0.66428378
0.38144346
0.32574737
0.010777442
0
0
0.13909217
0.0010046256
0.01461927
1.0068969
0.0019984175
7.1378293e-05
0.080244557
0.0012477738
0.0020925368
0
0
0.041790402
0.0068050081
0.34531591
0.026097406
0.021168254
0.41676899
1.069255
0
0.36524819
0.47789817
0.022587678
0.153274
0.67660309
0.26088812
0.0084072722
0.4421793
1.4235455
0.24850546
0.0014461834
0.00019138602
0.013899479
0.704886
0.4465139
0.11199155
1.4383662
1.033646
0.0097337195
1.0408025
1.5927832
0.88832262
0.17208223
0.040981844
0.27103431
0.0036500979
0.016915834
0
0
0.00032254308
0.00012435628
0
0
2.0952555e-05
0
0
0
0
0
0
0
0
0
0.00102442
0.0017141635
0.0010907859
0.00099018658
0.0015628069
0.0011995751
0.0018638131
0.00087382204
0.0012547032
0.00037868582
0.00010880949
0.0005777113
0.00018785666
1.9039675e-05
0.00020027143
0.0018938396
0.00074099659
0.00032585042
0.0010784962
0.0012396616
0.00062412242
0.00054369383
0.0011391734
0.00053734975
0.0018233107
0.0022506242
0.0013016255
0.00061809553
0.0019114596
0.0020583873
0.0018720618
0.0025963329
0.0017706853
0.0018218573
0.0010837093
0.0016498655
0.0014873715
0.0012477646
0.0015133006
0.0018077827
0.00083363224
0.00080499167
0.00026310148
0
0.00029895094
0.00020375064
0.00014825585
7.7550065e-05
0.00018920877
0.0012072493
0.0015528971
0.00037463403
0.00068121447
0.00044797614
0
0.00064115855
0.00045301412
0.0024522298
0.00069163512
0.0025487572
0
0.0002188694
0.00041237138
0
4.9323951e-05
0.00011046289
0.00041208928
0
0
0
0
0
0
0
2.0724361e-05
0.00010988792
0.00022983486
0
0
0
0
0
0
0
0.00015818368
0
0
0
0
0
0
0
0
0.0001001665
0
0.00061386178
0.00034299455
0
0
0
0
0
0
0
0
0
0
0
0
0
0
0.00053627171
0.00028437827
1.3696905e-05
0.00020723636
2.193239e-05
0
0
0
0.00045477703
0.0003677771
6.441448e-05
0.00013690146
4.104519e-05
0.0019558249
0.0024624908
0.0016708407
7.8545942e-07
0
7.4259916e-05
0.0021640677
0.0023192704
0.00016638122
4.5566108e-05
0.0012970426
0.00021550662
0.00074577105
0
0
0
0.0081602429
0.010330326
0.00076666832
0.0023796768
0.006144892
0.0042697757
0
0
0
0
0
0
0.00010815289
0.00014283435
2.3554244e-05
7.6377523e-06
0
0
0.0097257835
0.017459473
0.013494094
0.0067730641
0.013948321
0.011891957
0.006435528
0.0031743547
0.0026536768
0.008276624
0
0.005949241
0.0081137801
0.0050331292
0.010941849
0.0040454638
0.0046935595
0.0029818322
0.00098646443
0.00082273533
0.001671248
0.00049485823
0.0057700545
0.015563553
0.0074956951
0.012545249
0.011207483
0
0
3.4643985e-05
4.4184557e-05
0
0
0
0
0
0
0
0
0
0
0
0
0
0
0
0
0
1.5746985e-05
0
0
0
0
0
0
0
0
0
0
0
0
0
0
0
0
0
0
0
0
0
0
0
0
0
0
0
0
0
0
0
0
0
0
0
0
0
0
0
0
0
0
0
0
0
0
0
0
0
0
0
0
0
0
0
0
0
0
0
0
0
0
0
0
0
0
0
0
0
0
0
0
0.36547164
0.47634338
0.29634657
1.1070814
0.71625604
0.73341389
0.28559016
0.36497968
0.7488391
1.0197966
0.55096938
0.49892379
1.1403387
0.78255072
0.25498999
0.45100764
0.44084288
0.42348839
0
0
0
0
0.00012888022
0
0
0
0
0
0
0
0
0.71988942
1.3154158
0.71134817
0.71393637
0.42906241
0.46154042
0.60922817
0.71780444
0.33319055
0
0.99005375
1.2454941
0.51192893
0.34365258
0.37462419
0.5295745
0.35959843
0.81396147
0.2787095
0.32537264
1.1132347
0.27060914
0.42732438
0.28271136
0.84574921
0.3973931
0.39139852
0.30989795
1.135173
0.55370191
0.72976508
0.42528895
0.54173345
1.0860219
0.72458156
0.4128264
0.53024993
1.3068272
0.58170385
0.46276335
)


472
(
0
0
0
0.84549105
0.47324999
0
0
4.3076425e-05
0.043667006
0.76778909
0.065784904
0.61415003
0.39701675
0
0.34618003
0.13095205
1.0811615
1.3871227
1.6961809
0.36069789
0.86397853
0.0089272362
0.15386478
0
1.0345789
0
0.40920542
1.0144912
0.93639257
0.26605858
0.022881147
0.22218988
0.00068431402
0.0016535193
0
0
0.00023038152
0
0
0
0
0.0025760497
0
0
0
0
0
0
0
0
0
0
0
0.35387181
0.5410594
0.50205374
0.5824211
0.089449907
0
0.020154341
0.48878747
0.013147496
0.027775538
1.3231203
0.025177617
0.020506576
0.63950083
0.08877079
0.14721156
0
0
0.10820902
0.012102842
0.59633054
0.014310757
0.033674437
0.4797919
1.5211584
0
0.18029844
0.16940643
0.025255301
0.23872412
1.1779273
0.35165433
0.020849047
0.12306462
0.87064287
0.1271106
0.00042852416
0.00054231001
0.21267833
0.39395622
0.32692159
0.079488511
1.3083296
0.58236681
0.0015909178
0.55219505
1.3682526
1.3029387
0.72217808
0.034702909
0.080786945
0.0025220812
0.0085826285
2.0868652e-05
0
0.0038751084
0
0.0086548512
0.0058661167
0
0.0034417941
0.0016919363
0.0045384125
0
0
0
0.00046324446
0.0015363682
5.0004006e-05
0.052487977
0.081183854
0.016832747
0.010416495
0.021798956
0.042467719
0.063806741
0.030870324
0.037938047
0.0023693821
0.0011307726
0.011829361
0.0034518127
0.0032018043
0.0022771559
0.056016602
0.024385359
0.023645431
0.050050054
0.024794454
0.009790954
0.0057938375
0.046512253
0.021664119
0.071055565
0.066794532
0.032883809
0.020397337
0.047765071
0.054370519
0.042977553
0.10374755
0.077028601
0.036376153
0.040884481
0.051256886
0.041663229
0.030089644
0.059846322
0.063045039
0.0067244382
0.0045995234
0.017236421
0.012496403
0.0014913849
0.00051002369
0.0042501597
0.0043637582
0.0010452764
0.017955045
0.029194083
0.022856272
0.014125113
0.0024910764
0.0080208553
0.018759921
0.022363372
0.080608754
0.018481962
0.091222363
0
0
0
0
0
0
0
0
0
0
0
0
0
0
0
0
0
0
0
0
0
0
0
0
3.2756762e-05
0
0
0
0
0
0
0
0
0
0
0.00067678228
0.00020864089
0
0
0
0
0
0
0
0
0
0
0
0
0
0
0.0060823701
0.0021306761
0.0001920601
0.001230248
0.00010860794
0
0
0
0.0045925172
0.0032569589
0.00010592876
0.00055571931
0
0.00092066369
0.001289125
0.0010712494
0
0
0.00086015705
0.00022190794
0.00050179813
0.0036036456
0.00032144106
0.0008359291
0
0.00038906071
0
0
0
0.011538575
0.015319751
0.00043094225
0.0018247549
0.0072603986
0.0040520032
0
0
0
0
0
0
0.0016166466
0.002559702
1.0772381e-05
6.2505851e-05
0
0
0.0082962857
0.013556104
0.012603033
0.0035712546
0.020997334
0.019022705
0.0053048892
0.0020416939
0.0016634421
0.0080209147
0
0.0041699837
0.0071060229
0.0037838256
0.010911011
0.0029965646
0.0034306511
0.0019819421
0.00036325412
0.00018820499
0.00091720246
0
0.0046878151
0.0133339
0.0025259275
0.0080208693
0.0083970748
0
0
0
0
0
0
0
0
0
0
0
0
0
0
0
0
0
0
0
0
0
0
0
0
0
0
0
0
0
0
0
0
0
0
0
0
0
0
0
0
0
0
0
0
0
0
0
0
0
0
0
0
0
0
0
0
0
0
0
0
0
0
0
0
0
0
0
0
0
0
0
0
0
0
0
0
0
0
0
0
0
0
0
0
0
0
0
0
0
0
0
0
0
0
0.27690278
0.43786449
0.35020501
1.1832862
0.49575696
0.66998095
0.28143756
0.46088912
0.60541613
0.85817487
0.49675703
0.49898241
1.0166995
0.88101978
0.21529862
0.36114798
0.33104615
0.4421359
0
0
0
0
0
0
0.0001356148
0
0
0
0
0
0
0.74297008
1.0935412
0.7918655
0.58577494
0.52709571
0.46500913
0.5008883
0.68343338
0.32147435
0
0.98254354
0.99535716
0.52986398
0.27350603
0.3376605
0.57301847
0.30833846
0.61919344
0.25129444
0.27515853
1.111409
0.24510446
0.39920126
0.28067998
0.73173122
0.35299423
0.38567078
0.34880626
0.98165923
0.40945123
0.58017214
0.45062817
0.4878678
1.1407728
0.65171331
0.40645283
0.5351017
0.99608356
0.71622221
0.36499382
)


472
(
0
0
0
0.66324038
0.23785265
0
0
0
0.017026285
0.50371307
0.035277491
0.41671868
0.20197307
0
0.17149322
0.1532133
1.0730055
0.88804864
1.5280287
0.16099897
0.46207779
0.0045761964
0.1823694
0
1.5368532
0
0.26363333
0.83043476
0.96590561
0.26393735
0.010557666
0.13513289
0.00014329322
0.00055842407
0
0
9.9207448e-05
0
0
0
0
0.00037186001
0
0
0
3.7847973e-05
0
0
0
0
0
0
0
0.18756291
0.35156249
0.54453617
0.72493172
0.4182575
0
0.040985758
1.0479949
0.022563351
0.025045093
1.4365624
0.051506022
0.15760318
1.258261
0.52791037
0.46704495
0
0
0.18253157
0.023876675
0.41243256
0.0077756036
0.0060775317
0.19964012
0.81206948
0
0.046528799
0.22954785
0
0.20535578
1.1193123
0.21465267
0.056224989
0.15947148
0.50313334
0.34688218
0.0011191696
0.0014471644
0.59006949
0.4061844
0.22692356
0.14153404
0.75945965
0.37434294
0.0054080933
0.34003999
0.7480495
1.0790832
1.3974179
0.0024509306
0.17656045
0.0074796661
0.0045490689
0
0
0.0017435484
0
0.023276858
0.010122448
0
0.006102796
0.0026013873
0.0067762295
0
0
0
0.000318178
0.00076187081
0
0.33478095
0.50053186
0.027870884
0.009541624
0.036752334
0.11034762
0.16288962
0.065576809
0.093974065
0.00067672414
0.0065172797
0.021281824
0.0045396617
0.0085405509
0.0015712191
0.1375697
0.052108894
0.17130707
0.19901324
0.049920133
0.015699518
0.0051606268
0.12562774
0.058445763
0.18661888
0.15903489
0.075058031
0.051122902
0.11038915
0.12874727
0.099305531
0.5469035
0.30307413
0.073505293
0.086173287
0.11830429
0.095986957
0.067332214
0.25216832
0.14341615
0.0010086004
0
0.049768644
0.023364379
0.00010651463
0.0032977649
0.0071179723
0.0088149241
0
0.031044391
0.05978583
0.098275994
0.027927955
0
0.014775029
0.039930301
0.064832649
0.19088555
0.041313444
0.32948889
0
0
0
0
0
0
0
0
0
0
0
0
0
0
0
0
0
0
0
0
0
0
0
0
0
0
0
0
0
0
0
0
0
0
0
0
0
0
0
0
0
0
0
0
0
0
0
0
0
0
0
0.007478224
0.0025122888
6.1650628e-05
0.0015931876
1.2060657e-06
0
0
0
0.0049408015
0.0036316391
0.00033045445
0.00087274538
0
0.00079218395
0.0038056643
0.0001601369
8.1400928e-05
0
0.0016953859
0.0016221963
0.0026277308
0.0050753484
0.00092280366
0.00031722191
0.00027518205
0.00037150539
0
2.8122887e-05
0.00011291765
0.0049442533
0.0046788566
0.0012753744
0.0023754682
0.0049686912
0.0039601631
0.00058993086
9.5948171e-05
3.820659e-05
0
0
0
0.0026637287
0.0038070351
0.00035425771
4.7074914e-05
0
0.00011672218
0.0013338223
0.0012674561
0.002948167
0.0013508035
0.0037970623
0.004492932
0.0020737075
0.0024100343
0.0015353412
0.0034943721
0.00062317246
0.00047859923
0.0019379795
0.00055335975
0.003392236
0.00092511841
0.0019011176
0.0010007126
0.001373624
0.0010621769
0.00086289278
0.00059585566
0.0030389869
0.0022366941
0.002414594
0.0009345061
0.00048317863
0.00028819987
0.00056859533
0
0
0
0
0
0
0
0
0
0
0
0
0
0
0
0
0
0
0
0
0
0
0
0
0
0
0
0
0
0
0
0
0
0
0
0
0
0
0
0
0
0
0
0
0
0
0
0
0
0
0
0
0
0
0
0
0
0
0
0
0
0
0
0
0
0
0
0
0
0
0
0
0
0
0
0
0
0
0
0
0
0
0
0
0
0
0
0
0
0
0
0
0.28780831
0.43912597
0.33920972
1.2334909
0.39820055
0.6939253
0.34994319
0.51093028
0.48092507
0.7653586
0.48150453
0.54679168
0.82774257
0.9408241
0.27883485
0.42108023
0.37185924
0.50586812
0
0
0
0
0
0
1.1903066e-05
0
0
0
0
0
0
0.61026487
0.88395341
0.70405451
0.50009585
0.56325024
0.49766359
0.44502127
0.57578296
0.36395779
0
1.0992245
0.65663497
0.51682932
0.19990151
0.23442854
0.40923072
0.21877006
0.35666989
0.20918857
0.34149487
0.65815134
0.18957857
0.30798288
0.27615732
0.46159608
0.24167629
0.49346089
0.26220451
0.73281969
0.28246349
0.39464232
0.31328501
0.53802679
0.92170791
0.49805159
0.44275432
0.77648647
0.63928568
0.87324052
0.27657738
)


472
(
0
0
0
0.49472853
0.073886216
0
0
0
0.0011436223
0.3459251
0.0040402561
0.20836793
0.091627085
0
0.050539155
0.047242862
0.85826893
0.54767631
1.4334962
0.18032222
0.17986433
0.0092602566
0.15594278
0
1.8696345
0
0.11629127
0.78886949
1.0776493
0.28337081
0.0089781054
0.04582172
0
0.0033960562
0
0
0
0
0
0
0
0
0
0
0
0
0
0
0
0
0
0
0
0.05856964
0.32911022
0.33302501
0.93567264
0.9059418
0
0.01404516
1.6337807
0.0099847897
0.0043274806
1.623932
0.022996311
0.44645745
1.5698202
1.1021466
0.52441264
0
0
0.51848576
0.015554829
0.24573438
0.013312294
0.008005409
0.056139792
0.69458933
0
0.024323986
0.28422856
0.00039502024
0.29638801
0.82794575
0.34527716
0.20560639
0.061686828
0.50638996
0.59898489
0
0
0.70808587
0.7146039
0.40629698
0.0022096792
0.66801626
0.28253613
0
0.22536696
0.68133936
0.98695736
1.0048568
0.01430654
0.046603413
0.0039573047
0.0064306971
0
0
0
0
0.0095282942
0.0051030704
0
0.0029437336
0.00068539753
0.001669317
0
0
0
0
0
0
0.86693551
1.2121836
0.018876202
0
0.0096724759
0.36493948
0.52711532
0.13762568
0.27811368
0.11632532
0.035267402
0.022355715
0.0016398612
0.026095922
0
0.40242398
0.10757188
0.51332599
0.64435787
0.10051451
0.010362554
0
0.45335857
0.20171558
0.6517083
0.46842199
0.19211584
0.15316945
0.27831951
0.36028642
0.25033934
1.0022359
0.91504571
0.14774807
0.18524493
0.32264842
0.25091709
0.15337207
0.38456325
0.40032808
0
0
0.0248269
0.012982233
0.070865077
0.045727718
0.0089248411
0.017561826
0
0.014591555
0.12032688
0.36525575
0.054908495
0
0.0072297936
0.078014244
0.25241402
0.5772072
0.10553593
0.77119929
0
0
0
0
0
0
0
0
0
0
0
0
0
0
0
0
0
0
0
0
0
0
0
0
0
0
0
0
0
0
0
0
0
0
0
0
0
0
0
0
0
0
0
0
0
0
0
0
0
0
1000
1000
1000
1000
1000
1000
1000
1000
1000
1000
1000
1000
1000
1000
1000
1000
1000
1000
1000
1000
1000
1000
1000
1000
1000
1000
1000
1000
1000
1000
1000
1000
1000
1000
1000
1000
1000
1000
1000
1000
1000
1000
1000
1000
1000
1000
1000
1000
1000
1000
1000
1000
1000
1000
1000
1000
1000
1000
1000
1000
1000
1000
1000
1000
1000
1000
1000
1000
1000
1000
1000
1000
1000
1000
1000
1000
1000
1000
1000
1000
1000
1000
1000
1000
1000
1000
1000
1000
1000
1000
1000
1000
1000
1000
1000
1000
1000
0
0
1000
1000
1000
1000
1000
1000
0
1000
1000
0
1000
1000
1000
1000
1000
1000
1000
1000
1000
0
1000
1000
0
0
1000
1000
1000
1000
1000
1000
1000
1000
1000
1000
1000
1000
1000
1000
1000
1000
1000
1000
1000
1000
1000
0
0
1000
0
1000
0
1000
0
1000
1000
1000
0
1000
0
1000
0
0
0
1000
0
1000
1000
1000
1000
1000
0.43595985
0.5894599
0.45037205
1.3463381
0.45964662
0.78585635
0.35628179
0.5808104
0.55054094
0.85616177
0.65438069
0.61309341
0.97186696
1.0768616
0.34179827
0.52755761
0.64864683
0.54470309
0
0
0
0
0
0
0
0
0
0
0
0
0
0.6125422
0.88646527
0.69879218
0.67482008
0.74573579
0.72460241
0.5358633
0.66569607
0.47589784
0
1.2771204
0.55071334
0.36056787
0.16567095
0.22678408
0.35623338
0.15878652
0.32414862
0.17834658
0.36934384
0.66909951
0.18816788
0.24758135
0.25725025
0.52505239
0.23480499
0.47792681
0.22795167
0.55575034
0.28398247
0.37641514
0.26932387
0.39364598
0.73140574
0.37943686
0.33592082
0.61413764
0.62247371
0.66055282
0.38375761
)

)


// ************************************************************************* //
