/*--------------------------------*- C++ -*----------------------------------*\
  =========                 |
  \\      /  F ield         | OpenFOAM: The Open Source CFD Toolbox
   \\    /   O peration     | Website:  https://openfoam.org
    \\  /    A nd           | Version:  8
     \\/     M anipulation  |
\*---------------------------------------------------------------------------*/
/*   Windows 32 and 64 bit porting by blueCAPE: http://www.bluecape.com.pt   *\
|  Based on Windows porting (2.0.x v4) by Symscape: http://www.symscape.com   |
\*---------------------------------------------------------------------------*/
FoamFile
{
    version     2.0;
    format      ascii;
    class       scalarListList;
    location    "constant/vegetation";
    object      solarLoadFineFaces;
}
// * * * * * * * * * * * * * * * * * * * * * * * * * * * * * * * * * * * * * //


5
(

1117
(
501.05251
501.05251
501.05251
501.05251
167.31556
272.06935
167.31556
501.05251
272.06935
501.05251
501.05251
501.05251
501.05251
501.05251
501.05251
501.05251
501.05251
501.05251
501.05251
501.05251
501.05251
167.31556
501.05251
277.9536
501.05251
501.05251
501.05251
501.05251
501.05251
176.97525
160.05982
160.05982
501.05251
501.05251
501.05251
501.05251
224.32537
176.97525
501.05251
501.05251
501.05251
193.06959
193.06959
272.06935
501.05251
501.05251
501.05251
249.30471
501.05251
501.05251
501.05251
501.05251
501.05251
501.05251
501.05251
501.05251
501.05251
501.05251
501.05251
501.05251
501.05251
501.05251
501.05251
501.05251
193.06959
193.06959
249.30471
501.05251
501.05251
501.05251
501.05251
501.05251
501.05251
501.05251
501.05251
501.05251
501.05251
501.05251
501.05251
501.05251
501.05251
501.05251
501.05251
501.05251
501.05251
501.05251
501.05251
501.05251
501.05251
0
501.05251
501.05251
501.05251
501.05251
501.05251
501.05251
501.05251
501.05251
501.05251
501.05251
0
501.05251
501.05251
0
0
0
0
501.05251
0
0
501.05251
501.05251
501.05251
501.05251
501.05251
501.05251
501.05251
501.05251
501.05251
501.05251
501.05251
176.97525
501.05251
501.05251
501.05251
501.05251
501.05251
501.05251
501.05251
501.05251
501.05251
501.05251
501.05251
501.05251
501.05251
501.05251
501.05251
501.05251
297.58896
501.05251
160.05982
160.05982
501.05251
501.05251
501.05251
501.05251
169.52834
501.05251
501.05251
501.05251
501.05251
501.05251
501.05251
277.9536
501.05251
501.05251
501.05251
501.05251
501.05251
501.05251
501.05251
501.05251
501.05251
501.05251
501.05251
501.05251
501.05251
501.05251
501.05251
501.05251
501.05251
501.05251
501.05251
501.05251
501.05251
501.05251
501.05251
328.75597
501.05251
501.05251
501.05251
501.05251
501.05251
501.05251
501.05251
501.05251
0
0
501.05251
501.05251
501.05251
501.05251
501.05251
501.05251
501.05251
501.05251
501.05251
0
501.05251
501.05251
501.05251
501.05251
501.05251
501.05251
501.05251
501.05251
501.05251
501.05251
501.05251
501.05251
501.05251
501.05251
501.05251
501.05251
501.05251
501.05251
0
501.05251
501.05251
501.05251
501.05251
501.05251
501.05251
501.05251
501.05251
501.05251
501.05251
501.05251
501.05251
501.05251
501.05251
0
0
0
0
0
0
0
501.05251
501.05251
501.05251
501.05251
501.05251
0
0
501.05251
501.05251
501.05251
501.05251
501.05251
501.05251
501.05251
501.05251
501.05251
501.05251
501.05251
0
0
224.32537
221.04257
0
0
501.05251
501.05251
501.05251
501.05251
224.32537
501.05251
501.05251
501.05251
0
501.05251
501.05251
501.05251
501.05251
501.05251
501.05251
0
0
0
0
0
0
0
0
0
0
0
0
0
0
0
0
0
0
501.05251
501.05251
501.05251
501.05251
501.05251
501.05251
501.05251
501.05251
501.05251
501.05251
501.05251
501.05251
501.05251
501.05251
501.05251
501.05251
501.05251
501.05251
501.05251
501.05251
501.05251
501.05251
501.05251
501.05251
501.05251
501.05251
501.05251
501.05251
501.05251
501.05251
501.05251
501.05251
501.05251
318.32361
501.05251
501.05251
501.05251
501.05251
501.05251
501.05251
501.05251
501.05251
501.05251
318.32361
501.05251
501.05251
501.05251
501.05251
501.05251
501.05251
501.05251
501.05251
236.83019
236.83019
501.05251
501.05251
501.05251
323.58824
501.05251
501.05251
501.05251
501.05251
501.05251
501.05251
501.05251
501.05251
501.05251
501.05251
501.05251
221.2353
221.2353
221.2353
501.05251
221.2353
221.2353
501.05251
501.05251
501.05251
501.05251
501.05251
501.05251
501.05251
501.05251
501.05251
501.05251
170.11007
501.05251
501.05251
501.05251
501.05251
501.05251
501.05251
501.05251
501.05251
501.05251
501.05251
170.11007
170.11007
170.11007
501.05251
164.84738
164.84738
501.05251
501.05251
501.05251
501.05251
501.05251
501.05251
501.05251
501.05251
501.05251
353.55487
501.05251
501.05251
501.05251
164.84738
501.05251
501.05251
501.05251
501.05251
501.05251
501.05251
501.05251
501.05251
501.05251
501.05251
501.05251
501.05251
501.05251
501.05251
501.05251
501.05251
501.05251
501.05251
323.58824
501.05251
501.05251
501.05251
501.05251
501.05251
501.05251
501.05251
501.05251
501.05251
283.26438
501.05251
501.05251
501.05251
501.05251
501.05251
501.05251
501.05251
501.05251
190.34641
170.11007
501.05251
501.05251
501.05251
501.05251
501.05251
501.05251
501.05251
501.05251
501.05251
501.05251
501.05251
501.05251
501.05251
501.05251
501.05251
501.05251
501.05251
501.05251
501.05251
501.05251
501.05251
501.05251
501.05251
501.05251
501.05251
501.05251
501.05251
501.05251
501.05251
501.05251
501.05251
501.05251
501.05251
501.05251
501.05251
501.05251
501.05251
501.05251
501.05251
501.05251
501.05251
501.05251
0
0
0
0
0
0
0
0
0
0
0
0
0
0
0
0
0
0
0
0
0
0
0
0
0
0
0
0
0
0
0
0
0
0
0
0
0
0
0
0
0
0
0
0
0
0
0
0
0
0
0
0
0
0
0
0
0
0
0
0
0
0
0
0
0
0
0
0
0
0
0
0
0
0
0
0
0
0
0
0
0
0
0
0
0
0
0
0
0
0
0
0
0
0
0
0
0
0
0
0
0
0
0
0
0
0
0
0
0
0
0
0
0
0
0
0
0
0
0
0
0
0
0
0
0
0
87.179411
87.179411
87.179411
87.179411
87.179411
87.179411
87.179411
87.179411
87.179411
87.179411
87.179411
87.179411
87.179411
87.179411
87.179411
87.179411
87.179411
87.179411
87.179411
87.179411
87.179411
87.179411
87.179411
87.179411
87.179411
87.179411
87.179411
87.179411
87.179411
87.179411
87.179411
87.179411
87.179411
87.179411
87.179411
87.179411
87.179411
87.179411
87.179411
87.179411
87.179411
87.179411
87.179411
87.179411
87.179411
87.179411
87.179411
87.179411
87.179411
87.179411
87.179411
87.179411
87.179411
87.179411
87.179411
87.179411
87.179411
87.179411
87.179411
87.179411
87.179411
87.179411
87.179411
87.179411
87.179411
87.179411
87.179411
87.179411
87.179411
87.179411
87.179411
87.179411
87.179411
87.179411
87.179411
87.179411
87.179411
87.179411
87.179411
87.179411
87.179411
87.179411
87.179411
87.179411
87.179411
87.179411
87.179411
87.179411
87.179411
87.179411
87.179411
87.179411
87.179411
87.179411
87.179411
87.179411
87.179411
0
0
87.179411
87.179411
87.179411
87.179411
87.179411
87.179411
0
87.179411
87.179411
0
87.179411
87.179411
87.179411
87.179411
87.179411
87.179411
87.179411
87.179411
87.179411
0
87.179411
87.179411
0
0
87.179411
87.179411
87.179411
87.179411
87.179411
87.179411
87.179411
87.179411
87.179411
87.179411
87.179411
87.179411
87.179411
87.179411
87.179411
87.179411
87.179411
87.179411
87.179411
87.179411
87.179411
0
0
87.179411
0
87.179411
0
87.179411
0
87.179411
87.179411
87.179411
0
87.179411
0
87.179411
0
0
0
87.179411
0
87.179411
87.179411
87.179411
87.179411
87.179411
0
217.9879
241.23565
0
0
0
3.6468433
0
0
279.36108
205.37266
369.59476
232.13626
0
0
0
0
0
0
72.491973
0
440.57743
0
276.23443
406.69386
0
116.92825
183.69374
96.631718
189.19675
243.75924
180.39366
42.434625
82.157521
102.0955
132.28356
265.17053
299.49001
230.49872
313.63958
0
16.646166
22.650195
0
136.32482
0
271.144
113.6639
170.80018
73.592002
41.876442
0
0
0
0
0
0
0
0
0
0
0
0
0
101.21552
192.23523
281.9447
229.54245
219.44336
269.74322
233.23524
353.78448
245.08055
0
47.821501
0
0
0
0
0
0
175.08944
114.01678
136.50036
68.298869
46.176002
0
0
0
17.158744
0
149.68763
0
0
0
0
0
0
234.93357
97.630328
71.909088
202.21914
69.913089
416.89085
0
0
0
0
0
0
0
0
30.783409
73.584254
0
196.75743
11.420383
0
0
442.78463
86.460053
354.79696
223.70275
0
3.9112285
162.03411
219.61817
249.302
167.58741
13.555567
511.7844
156.99168
410.26192
302.31976
304.57577
0
150.09188
66.148005
191.71319
0
0
0
0
0
0
0
14.039441
0
249.75817
0
0
68.26533
0
0
0
0
0
0
0
0
0
0
57.996669
0
132.41431
301.40073
122.08508
406.26986
511.99704
69.57616
0
62.454042
0
259.98637
193.17711
174.51934
151.66216
324.67014
144.21053
189.90694
136.67928
0
0
0
128.72593
148.57337
28.862123
26.046499
232.81448
15.005506
0
264.37077
84.790443
243.21745
308.15962
0
112.10848
0
41.038165
0
40.422452
139.98663
1.3234027
0
66.646397
24.917624
0
46.050801
0
15.446804
0
0
206.38632
282.58596
426.98507
0
240.48503
158.41754
254.7402
136.49607
109.01081
25.378838
139.50699
240.77032
235.89414
204.70039
12.468971
11.918447
0
0
0
0
344.70196
170.70778
135.27741
0
20.706042
0
17.885674
0
100.55654
92.019088
78.683122
58.176458
105.8193
0
4.5650382
313.40771
186.22879
203.05443
157.24188
291.1003
238.54578
236.79184
221.78518
285.43747
392.59209
306.71998
0
0
0
0
0
0
0
354.90806
455.14511
136.91539
192.80583
0
4.6638734
0
135.75213
214.30857
66.390363
314.56849
294.61646
408.18515
278.87699
192.77409
461.5403
126.97775
161.39035
233.75154
221.72107
0
0
0.32180892
0
0
0
0
0
0
0
27.114622
0
138.27286
0
48.677932
7.4422893
0
0
38.792216
0
48.734938
208.45092
167.95153
310.05031
494.89497
272.24732
102.69337
328.12578
477.90533
134.71434
101.77683
209.80754
147.01878
153.09408
0
0
0
0
0
9.0228567
0
0
0
0
0
)


1117
(
284.54856
284.54856
284.54856
284.54856
284.54856
284.54856
116.43712
284.54856
134.23811
284.54856
284.54856
284.54856
284.54856
284.54856
284.54856
284.54856
284.54856
284.54856
284.54856
284.54856
284.54856
284.54856
284.54856
284.54856
284.54856
284.54856
284.54856
284.54856
284.54856
114.33391
53.254357
53.254357
103.55452
284.54856
284.54856
284.54856
69.537121
114.33391
284.54856
284.54856
284.54856
99.916298
99.916298
134.23811
284.54856
284.54856
284.54856
103.55452
284.54856
284.54856
284.54856
284.54856
284.54856
284.54856
284.54856
284.54856
284.54856
284.54856
284.54856
284.54856
284.54856
284.54856
284.54856
284.54856
99.916298
99.916298
103.55452
106.5233
284.54856
284.54856
284.54856
284.54856
284.54856
284.54856
284.54856
284.54856
284.54856
284.54856
284.54856
284.54856
284.54856
284.54856
284.54856
284.54856
284.54856
284.54856
284.54856
284.54856
284.54856
0
284.54856
284.54856
284.54856
284.54856
284.54856
284.54856
284.54856
284.54856
284.54856
284.54856
284.54856
284.54856
284.54856
284.54856
0
0
0
0
0
0
284.54856
284.54856
284.54856
284.54856
284.54856
284.54856
284.54856
284.54856
284.54856
284.54856
284.54856
114.33391
134.23811
284.54856
284.54856
284.54856
284.54856
284.54856
284.54856
284.54856
284.54856
284.54856
284.54856
284.54856
284.54856
284.54856
103.55452
284.54856
132.06392
194.3111
284.54856
53.254357
284.54856
284.54856
284.54856
284.54856
284.54856
284.54856
284.54856
284.54856
284.54856
284.54856
284.54856
284.54856
114.33391
284.54856
284.54856
284.54856
284.54856
284.54856
284.54856
284.54856
284.54856
106.5233
284.54856
284.54856
284.54856
284.54856
284.54856
284.54856
284.54856
284.54856
284.54856
284.54856
284.54856
284.54856
284.54856
284.54856
284.54856
284.54856
284.54856
284.54856
284.54856
284.54856
284.54856
284.54856
284.49455
0
284.54856
284.54856
284.54856
284.54856
284.54856
284.54856
284.54856
284.54856
284.54856
284.54856
284.54856
284.54856
284.54856
284.54856
0
284.54856
284.54856
284.54856
284.54856
284.54856
284.54856
284.54856
284.54856
284.54856
284.54856
284.54856
284.54856
0
284.54856
284.54856
284.54856
284.54856
284.54856
284.54856
284.54856
284.54856
284.54856
284.54856
284.54856
284.54856
284.54856
284.54856
284.54856
284.54856
284.54856
284.54856
284.54856
284.54856
284.54856
284.54856
284.54856
284.54856
284.54856
284.54856
284.54856
284.54856
284.54856
284.54856
284.54856
284.54856
103.96008
284.54856
284.54856
284.54856
69.537121
284.54856
284.54856
284.54856
284.54856
284.54856
284.54856
284.54856
284.54856
284.54856
284.54856
284.54856
284.54856
284.54856
284.54856
284.54856
284.54856
284.54856
284.54856
284.54856
284.54856
284.54856
284.54856
284.54856
284.54856
284.54856
284.54856
284.54856
284.54856
284.54856
284.54856
284.54856
284.54856
284.54856
284.54856
284.54856
284.54856
284.54856
284.54856
284.54856
284.54856
284.54856
284.54856
284.54856
284.54856
284.54856
284.54856
284.54856
284.54856
284.54856
284.54856
284.54856
284.54856
284.54856
284.54856
284.54856
284.54856
284.54856
284.54856
284.54856
284.54856
284.54856
284.54856
201.45943
284.54856
284.54856
284.54856
284.54856
284.54856
97.67532
284.54856
284.54856
284.54856
284.54856
284.54856
284.54856
284.54856
284.54856
284.54856
284.54856
284.54856
284.54856
284.54856
284.54856
284.54856
284.54856
176.44439
284.54856
284.54856
284.54856
284.54856
284.54856
284.54856
284.54856
284.54856
68.53595
68.53595
97.67532
284.54856
284.54856
284.54856
284.54856
284.54856
284.54856
284.54856
284.54856
284.54856
284.54856
284.54856
284.54856
284.54856
284.54856
140.61391
140.61391
140.61391
284.54856
140.61391
284.54856
284.54856
68.53595
284.54856
284.54856
284.54856
284.54856
284.54856
284.54856
284.54856
284.54856
284.54856
57.865463
284.54856
284.54856
284.54856
284.54856
284.54856
284.54856
284.54856
284.54856
284.54856
101.21611
101.21611
101.21611
117.04767
57.865463
57.865463
284.54856
284.54856
68.53595
284.54856
284.54856
284.54856
284.54856
284.54856
284.54856
197.48364
284.54856
284.54856
100.49434
57.865463
144.64766
284.54856
284.54856
284.54856
284.54856
284.54856
284.54856
284.54856
284.54856
284.54856
284.54856
284.54856
284.54856
284.54856
284.54856
284.54856
284.54856
284.54856
284.54856
284.54856
284.54856
284.54856
284.54856
284.54856
284.54856
284.54856
284.54856
284.54856
284.54856
284.54856
284.54856
284.54856
284.54856
284.54856
284.54856
284.54856
284.54856
284.54856
101.21611
284.54856
284.54856
284.54856
284.54856
284.54856
284.54856
284.54856
284.54856
284.54856
284.54856
284.54856
284.54856
284.54856
284.54856
284.54856
284.54856
284.54856
284.54856
284.54856
284.54856
284.54856
284.54856
284.54856
284.54856
284.54856
284.54856
284.54856
284.54856
284.54856
284.54856
284.54856
284.54856
284.54856
284.54856
284.54856
284.54856
284.54856
284.54856
284.54856
284.54856
284.54856
284.54856
23.719504
23.719504
23.719504
23.719504
23.719504
23.719504
23.719504
23.719504
23.719504
23.719504
23.719504
23.719504
23.719504
23.719504
23.719504
23.719504
23.719504
23.719504
23.719504
23.719504
23.719504
23.719504
23.719504
23.719504
23.719504
23.719504
23.719504
23.719504
23.719504
23.719504
23.719504
23.719504
23.719504
23.719504
23.719504
23.719504
23.719504
23.719504
23.719504
23.719504
23.719504
23.719504
23.719504
23.719504
23.719504
23.719504
23.719504
23.719504
23.719504
23.719504
23.719504
23.719504
23.719504
23.719504
23.719504
23.719504
23.719504
23.719504
23.719504
23.719504
23.719504
23.719504
23.719504
23.719504
23.719504
23.719504
23.719504
23.719504
23.719504
23.719504
23.719504
23.719504
23.719504
23.719504
23.719504
23.719504
23.719504
23.719504
23.719504
23.719504
23.719504
23.719504
23.719504
23.719504
23.719504
23.719504
23.719504
23.719504
23.719504
23.719504
23.719504
23.719504
23.719504
23.719504
23.719504
23.719504
23.719504
23.719504
23.719504
23.719504
23.719504
23.719504
23.719504
23.719504
23.719504
23.719504
23.719504
23.719504
23.719504
23.719504
23.719504
23.719504
23.719504
23.719504
23.719504
23.719504
23.719504
23.719504
23.719504
23.719504
23.719504
23.719504
23.719504
23.719504
23.719504
23.719504
50.690264
50.690264
50.690264
50.690264
50.690264
50.690264
50.690264
50.690264
50.690264
50.690264
50.690264
50.690264
50.690264
50.690264
50.690264
50.690264
50.690264
50.690264
50.690264
50.690264
50.690264
50.690264
50.690264
50.690264
50.690264
50.690264
50.690264
50.690264
50.690264
50.690264
50.690264
50.690264
50.690264
50.690264
50.690264
50.690264
50.690264
50.690264
50.690264
50.690264
50.690264
50.690264
50.690264
50.690264
50.690264
50.690264
50.690264
50.690264
50.690264
50.690264
50.690264
50.690264
50.690264
50.690264
50.690264
50.690264
50.690264
50.690264
50.690264
50.690264
50.690264
50.690264
50.690264
50.690264
50.690264
50.690264
50.690264
50.690264
50.690264
50.690264
50.690264
50.690264
50.690264
50.690264
50.690264
50.690264
50.690264
50.690264
50.690264
50.690264
50.690264
50.690264
50.690264
50.690264
50.690264
50.690264
50.690264
50.690264
50.690264
50.690264
50.690264
50.690264
50.690264
50.690264
50.690264
50.690264
50.690264
23.719504
23.719504
50.690264
50.690264
50.690264
50.690264
50.690264
50.690264
23.719504
50.690264
50.690264
23.719504
50.690264
50.690264
50.690264
50.690264
50.690264
50.690264
50.690264
50.690264
50.690264
23.719504
50.690264
50.690264
23.719504
23.719504
50.690264
50.690264
50.690264
50.690264
50.690264
50.690264
50.690264
50.690264
50.690264
50.690264
50.690264
50.690264
50.690264
50.690264
50.690264
50.690264
50.690264
50.690264
50.690264
50.690264
50.690264
23.719504
23.719504
50.690264
23.719504
50.690264
23.719504
50.690264
23.719504
50.690264
50.690264
50.690264
23.719504
50.690264
23.719504
50.690264
23.719504
23.719504
23.719504
50.690264
23.719504
50.690264
50.690264
50.690264
50.690264
50.690264
0
180.09418
144.13917
0
0
0
0
0
0
170.41657
166.45854
225.27912
109.17434
0
0
0
0
0
0
6.744919
0
207.59657
0
138.50399
198.16282
0
12.536845
107.19691
94.366377
109.91745
184.87537
55.154656
0
0.75157985
0
13.551867
202.30785
171.98243
175.01804
179.14948
0
0
0
0
8.6336311
0
206.89994
8.879849
100.03303
78.344303
0
0
0
0
0
0
0
0
0
0
0
78.042331
8.4034741
0
0
152.28945
96.545156
103.19522
71.65285
154.32637
174.30389
203.14059
135.81227
54.948586
70.417204
57.716586
0
42.347329
6.3009023
0
0
142.0055
125.96327
83.739589
55.943063
93.510177
6.3212049
40.732017
0
53.634445
55.60822
54.990974
0
0
0
0
0
0
153.51104
103.95306
59.127204
77.895397
106.39776
262.07652
0
0
0
0
0
0
0
15.086206
58.24481
68.769364
52.398325
149.89769
14.94806
6.4207661
0
253.3767
111.70698
152.26448
65.018168
35.669294
62.133018
30.270019
60.781647
107.87118
68.047651
0
286.97808
150.21236
184.38155
110.36139
135.41304
57.820085
81.331691
103.78054
104.11776
0
0
0
0
0
0
34.239885
9.1408013
0
76.398231
52.139719
56.518713
72.983938
0
0
0
0
0
0
0
0
0
31.693909
12.208344
41.166178
18.433121
173.33674
133.65753
180.06961
287.12804
98.183927
35.362247
102.56179
61.556644
101.87474
52.041642
56.625936
52.80143
146.87802
79.413209
142.51696
133.51271
0
0
0
16.248226
15.403027
0
0
76.629433
0
0
86.347645
0
73.907314
120.54481
0
10.676765
0
0
4.923321
71.971064
30.495595
0
0
4.422645
21.100279
0
0
0
26.309153
0
0
81.967291
98.703686
228.06881
0
159.5903
113.02785
197.37969
138.42761
0
35.293984
125.22298
185.34748
152.22803
70.965682
5.9309996
15.293921
0
0
0
58.15103
137.54227
158.38912
22.987192
0
0
48.823593
78.663602
48.44172
77.506678
15.234587
0
44.211565
42.409613
0
51.432751
116.73504
166.12317
128.48338
141.19748
177.57192
174.95887
114.26882
73.949393
146.23261
199.74951
129.84729
0
0
0
0
0
0
0
149.3077
278.56455
9.0714955
42.216307
60.798401
65.663057
56.369685
81.320098
128.70567
102.99373
121.8643
146.90139
200.26765
175.89502
163.61803
277.87278
12.54906
76.315145
71.187865
108.95091
0
0
0
0
0
0
0
0
0
0
0
0
9.6646868
43.214525
71.279637
36.931556
0
5.9927864
9.7050918
0
53.213071
64.780871
67.096856
147.22913
251.64995
173.45993
111.38408
201.92208
285.30762
19.38251
0.60139974
51.813197
94.502357
66.1408
0
0
0
0
0
42.398009
0
0
0
0
0
)


1117
(
247.54772
247.54772
247.54772
247.54772
247.54772
247.54772
247.54772
247.54772
247.54772
247.54772
247.54772
247.54772
247.54772
247.54772
114.87152
247.54772
247.54772
247.54772
247.54772
247.54772
247.54772
247.54772
247.54772
247.54772
247.54772
247.54772
247.54772
247.54772
247.54772
83.968511
61.835687
247.54772
114.87152
247.54772
247.54772
247.54772
45.39593
83.968511
247.54772
247.54772
247.54772
247.54772
104.33687
154.21587
247.54772
247.54772
247.54772
114.87152
247.54772
247.54772
247.54772
247.54772
247.54772
247.54772
247.54772
97.048494
247.54772
247.54772
247.54772
247.54772
247.54772
247.54772
247.54772
247.54772
104.33687
247.54772
114.87152
89.757551
247.54772
247.54772
247.54772
247.54772
247.54772
247.54772
247.54772
247.54772
247.54772
247.54772
247.54772
247.54772
247.54772
247.54772
247.54772
247.54772
247.54772
247.54772
247.54772
247.54772
247.54772
247.54772
0
247.54772
247.54772
0
247.54772
247.54772
247.54772
247.54772
247.54772
247.54772
247.54772
247.54772
247.54772
247.54772
0
0
247.54772
0
0
0
247.54772
247.54772
247.54772
247.54772
247.54772
247.54772
247.54772
247.54772
247.54772
247.54772
247.54772
247.54772
247.54772
247.54772
247.54772
247.54772
247.54772
247.54772
247.54772
247.54772
247.54772
247.54772
247.54772
247.54772
247.54772
247.54772
114.87152
247.54772
133.94822
149.83724
247.54772
247.54772
247.54772
247.54772
247.54772
247.54772
247.54772
247.54772
247.54772
247.54772
247.54772
247.54772
247.54772
247.54772
83.968511
247.54772
247.54772
247.54772
247.54772
247.54772
247.54772
247.54772
89.757551
89.757551
247.54772
97.048494
247.54772
247.54772
247.54772
247.54772
247.54772
247.54772
247.54772
247.54772
247.54772
247.54772
247.54772
247.54772
247.54772
247.54772
247.54772
247.54772
247.54772
247.54772
247.54772
247.54772
247.54772
0
247.54772
247.54772
247.54772
247.54772
247.54772
247.54772
247.54772
247.54772
247.54772
247.54772
247.54772
247.54772
247.54772
247.54772
0
0
247.54772
247.54772
246.91084
247.54772
247.54772
247.54772
0
247.54772
247.54772
247.54772
247.54772
247.54772
247.54772
247.54772
247.54772
247.54772
247.54772
247.54772
247.54772
247.54772
247.54772
247.54772
247.54772
247.54772
247.54772
247.54772
247.54772
247.54772
247.54772
247.54772
247.54772
247.54772
247.54772
247.54772
247.54772
247.54772
247.54772
247.54772
247.54772
247.54772
247.54772
65.922714
247.54772
247.54772
65.922714
138.2664
247.54772
247.54772
45.39593
247.54772
247.54772
247.54772
247.54772
247.54772
247.54772
247.54772
247.54772
247.54772
247.54772
247.54772
247.54772
247.54772
45.39593
45.39593
247.54772
247.54772
247.54772
247.54772
247.54772
247.54772
247.54772
247.54772
247.54772
247.54772
247.54772
247.54772
247.54772
247.54772
247.54772
247.54772
247.54772
247.54772
247.54772
247.54772
247.54772
247.54772
247.54772
247.54772
247.54772
247.54772
247.54772
247.54772
247.54772
247.54772
247.54772
247.54772
247.54772
247.54772
247.54772
247.54772
247.54772
247.54772
247.54772
247.54772
247.54772
247.54772
247.54772
247.54772
247.54772
247.54772
247.54772
136.35651
247.54772
247.54772
247.54772
247.54772
247.54772
54.078947
247.54772
247.54772
247.54772
247.54772
247.54772
247.54772
247.54772
247.54772
247.54772
76.223976
54.078947
247.54772
247.54772
247.54772
247.54772
247.54772
247.54772
247.54772
247.54772
247.54772
247.54772
247.54772
247.54772
247.54772
247.54772
103.64385
103.64385
54.078947
247.54772
247.54772
247.54772
247.54772
247.54772
247.54772
247.54772
247.54772
247.54772
247.54772
247.54772
247.54772
247.54772
247.54772
247.54772
166.94212
166.94212
247.54772
247.54772
247.54772
174.15558
103.64385
247.54772
247.54772
247.54772
247.54772
66.905004
247.54772
247.54772
247.54772
247.54772
63.013612
247.54772
247.54772
247.54772
67.266656
247.54772
247.54772
247.54772
247.54772
247.54772
138.27391
138.27391
247.54772
67.266656
63.013612
63.013612
247.54772
247.54772
103.64385
247.54772
247.54772
247.54772
247.54772
247.54772
247.54772
247.54772
247.54772
247.54772
247.54772
63.013612
76.223976
54.078947
247.54772
247.54772
247.54772
247.54772
247.54772
247.54772
247.54772
247.54772
247.54772
247.54772
247.54772
247.54772
247.54772
247.54772
247.54772
247.54772
247.54772
247.54772
247.54772
247.54772
247.54772
247.54772
247.54772
247.54772
247.54772
247.54772
247.54772
247.54772
247.54772
66.905004
247.54772
247.54772
247.54772
247.54772
247.54772
247.54772
247.54772
247.54772
247.54772
247.54772
247.54772
247.54772
247.54772
67.266656
247.54772
247.54772
247.54772
247.54772
247.54772
247.54772
247.54772
247.54772
247.54772
247.54772
247.54772
247.54772
247.54772
247.54772
247.54772
247.54772
247.54772
247.54772
247.54772
247.54772
247.54772
247.54772
247.54772
247.54772
247.54772
247.54772
247.54772
247.54772
247.54772
247.54772
247.54772
247.54772
247.54772
247.54772
247.54772
83.269254
83.269254
83.269254
83.269254
83.269254
83.269254
83.269254
83.269254
83.269254
83.269254
83.269254
83.269254
83.269254
83.269254
83.269254
83.269254
83.269254
83.269254
83.269254
83.269254
83.269254
83.269254
83.269254
83.269254
83.269254
83.269254
83.269254
83.269254
83.269254
83.269254
83.269254
83.269254
83.269254
83.269254
83.269254
83.269254
83.269254
83.269254
83.269254
83.269254
83.269254
83.269254
83.269254
83.269254
83.269254
83.269254
83.269254
83.269254
83.269254
83.269254
83.269254
83.269254
83.269254
83.269254
83.269254
83.269254
83.269254
83.269254
83.269254
83.269254
83.269254
83.269254
83.269254
83.269254
83.269254
83.269254
83.269254
83.269254
83.269254
83.269254
83.269254
83.269254
83.269254
83.269254
83.269254
83.269254
83.269254
83.269254
83.269254
83.269254
83.269254
83.269254
83.269254
83.269254
83.269254
83.269254
83.269254
83.269254
83.269254
83.269254
83.269254
83.269254
83.269254
83.269254
83.269254
83.269254
83.269254
83.269254
83.269254
83.269254
83.269254
83.269254
83.269254
83.269254
83.269254
83.269254
83.269254
83.269254
83.269254
83.269254
83.269254
83.269254
83.269254
83.269254
83.269254
83.269254
83.269254
83.269254
83.269254
83.269254
83.269254
83.269254
83.269254
83.269254
83.269254
83.269254
38.501412
38.501412
38.501412
38.501412
38.501412
38.501412
38.501412
38.501412
38.501412
38.501412
38.501412
38.501412
38.501412
38.501412
38.501412
38.501412
38.501412
38.501412
38.501412
38.501412
38.501412
38.501412
38.501412
38.501412
38.501412
38.501412
38.501412
38.501412
38.501412
38.501412
38.501412
38.501412
38.501412
38.501412
38.501412
38.501412
38.501412
38.501412
38.501412
38.501412
38.501412
38.501412
38.501412
38.501412
38.501412
38.501412
38.501412
38.501412
38.501412
38.501412
38.501412
38.501412
38.501412
38.501412
38.501412
38.501412
38.501412
38.501412
38.501412
38.501412
38.501412
38.501412
38.501412
38.501412
38.501412
38.501412
38.501412
38.501412
38.501412
38.501412
38.501412
38.501412
38.501412
38.501412
38.501412
38.501412
38.501412
38.501412
38.501412
38.501412
38.501412
38.501412
38.501412
38.501412
38.501412
38.501412
38.501412
38.501412
38.501412
38.501412
38.501412
38.501412
38.501412
38.501412
38.501412
38.501412
38.501412
83.269254
83.269254
38.501412
38.501412
38.501412
38.501412
38.501412
38.501412
83.269254
38.501412
38.501412
83.269254
38.501412
38.501412
38.501412
38.501412
38.501412
38.501412
38.501412
38.501412
38.501412
83.269254
38.501412
38.501412
83.269254
83.269254
38.501412
38.501412
38.501412
38.501412
38.501412
38.501412
38.501412
38.501412
38.501412
38.501412
38.501412
38.501412
38.501412
38.501412
38.501412
38.501412
38.501412
38.501412
38.501412
38.501412
38.501412
83.269254
83.269254
38.501412
83.269254
38.501412
83.269254
38.501412
83.269254
38.501412
38.501412
38.501412
83.269254
38.501412
83.269254
38.501412
83.269254
83.269254
83.269254
38.501412
83.269254
38.501412
38.501412
38.501412
38.501412
38.501412
4.278646
207.82404
125.55461
0
0
0
0
49.650917
9.8062859
152.89083
185.77151
204.89354
68.600187
0
0
0
0
0
0
0
0
142.72035
0
98.0462
138.86412
0
0
101.50128
122.25357
103.46941
204.83924
9.8434098
0
0
0
0
220.23281
145.36061
187.59947
150.91429
0
0
0
0
0
0
226.57732
0
95.501448
106.03777
0
0
0
0
0
0
0
0
0
0
0
0
4.1221507
28.328282
0
174.6933
26.432513
59.50943
10.75514
129.11562
184.7128
173.23448
108.81996
103.76083
94.824427
112.49283
0
8.1829836
45.386053
0
14.342556
156.86737
161.96159
71.837841
70.09781
142.08045
30.913859
93.35211
0
90.867063
105.79672
14.945852
0
0
0
0
0
0
156.29731
137.84508
73.832785
39.452058
152.41113
251.76043
0
0
0
0
0
0
0
66.490978
92.256744
77.878472
92.822947
159.52933
29.539327
54.247009
0
224.30987
154.99243
90.26716
2.8880664
91.955556
114.45981
0
4.2307492
58.096223
28.798296
0
244.92785
183.6505
114.92919
39.61794
79.171661
110.12691
60.653293
148.34683
79.807903
0
0
0
0
0
0
3.1499439
13.008239
0
7.1412507
107.18535
100.80279
88.374053
42.133744
0
18.940035
0
0
0
0
0
0
67.376393
0
0
0
157.30488
173.17249
110.05976
245.59159
140.77331
90.008433
148.89933
111.82614
51.289604
0
15.836932
10.235424
89.356481
60.24557
149.67576
162.8381
0
0
0
25.656674
0
0
0
13.151643
0
0
18.485339
0
4.6645686
52.901896
0
20.711227
0
0
54.310672
101.8286
0
0
18.453262
33.266268
0
0
0
0
44.854014
0
0
44.581726
31.359704
188.18375
0
164.00863
124.2913
219.65157
176.33451
0
81.549691
145.46632
201.39777
142.825
16.221054
8.9475395
0
0
0
0
112.19035
66.403786
192.44251
0
0.50972714
0
102.57398
129.6968
101.91682
91.493594
8.917227
0
53.871147
29.758362
26.14644
92.99915
46.034594
198.00579
117.29064
165.48327
159.65344
182.97413
75.175394
13.517628
107.01199
148.14793
68.801025
0
0
0
0
0
0
0
84.489998
260.47228
0
0
115.11231
119.1791
107.26078
67.926095
111.87738
146.37129
52.520385
103.68332
141.76267
163.00239
187.7719
253.16081
0
46.195695
4.1299213
73.317935
0
0
0
0
18.295088
0
0
33.45695
0
0
0
0
0
92.285017
95.942069
0
0
59.468398
43.106947
0
75.021911
11.723715
38.44475
106.37894
191.62255
172.182
147.79025
184.26203
260.43956
20.970618
0
0
85.581007
32.570275
0
0
0
0
0
0
0
0
0
0
0
)


1117
(
218.93877
218.93877
218.93877
218.93877
218.93877
218.93877
218.93877
218.93877
218.93877
218.93877
218.93877
218.93877
218.93877
218.93877
218.93877
218.93877
218.93877
218.93877
218.93877
218.93877
218.93877
218.93877
218.93877
218.93877
218.93877
218.93877
218.93877
218.93877
218.93877
218.93877
218.93877
218.93877
132.30092
218.93877
218.93877
218.93877
218.93877
74.872495
218.93877
218.93877
218.93877
218.93877
218.93877
218.93877
218.93877
218.93877
218.93877
132.30092
218.93877
218.93877
218.93877
218.93877
218.93877
218.93877
95.426598
83.336489
218.93877
218.93877
218.93877