/*--------------------------------*- C++ -*----------------------------------*\
  =========                 |
  \\      /  F ield         | OpenFOAM: The Open Source CFD Toolbox
   \\    /   O peration     | Website:  https://openfoam.org
    \\  /    A nd           | Version:  8
     \\/     M anipulation  |
\*---------------------------------------------------------------------------*/
/*   Windows 32 and 64 bit porting by blueCAPE: http://www.bluecape.com.pt   *\
|  Based on Windows porting (2.0.x v4) by Symscape: http://www.symscape.com   |
\*---------------------------------------------------------------------------*/
FoamFile
{
    version     2.0;
    format      ascii;
    class       polyBoundaryMesh;
    location    "constant/tower/polyMesh";
    object      boundary;
}
// * * * * * * * * * * * * * * * * * * * * * * * * * * * * * * * * * * * * * //

7
(
    buildings_to_air
    {
        type            mappedWall;
        inGroups        List<word> 
2
(
wall
mappedPatch
)
;
        nFaces          1501;
        startFace       35409;
        sampleMode      nearestPatchFace;
        sampleRegion    air;
        samplePatch     tower;
    }
    interior
    {
        type            patch;
        nFaces          1497;
        startFace       36910;
    }
    procBoundary12to7
    {
        type            processor;
        inGroups        List<word> 1(processor);
        nFaces          50;
        startFace       38407;
        matchTolerance  0.0001;
        myProcNo        12;
        neighbProcNo    7;
    }
    procBoundary12to9
    {
        type            processor;
        inGroups        List<word> 1(processor);
        nFaces          200;
        startFace       38457;
        matchTolerance  0.0001;
        myProcNo        12;
        neighbProcNo    9;
    }
    procBoundary12to10
    {
        type            processor;
        inGroups        List<word> 1(processor);
        nFaces          200;
        startFace       38657;
        matchTolerance  0.0001;
        myProcNo        12;
        neighbProcNo    10;
    }
    procBoundary12to13
    {
        type            processor;
        inGroups        List<word> 1(processor);
        nFaces          340;
        startFace       38857;
        matchTolerance  0.0001;
        myProcNo        12;
        neighbProcNo    13;
    }
    procBoundary12to14
    {
        type            processor;
        inGroups        List<word> 1(processor);
        nFaces          284;
        startFace       39197;
        matchTolerance  0.0001;
        myProcNo        12;
        neighbProcNo    14;
    }
)

// ************************************************************************* //
