/*--------------------------------*- C++ -*----------------------------------*\
  =========                 |
  \\      /  F ield         | OpenFOAM: The Open Source CFD Toolbox
   \\    /   O peration     | Website:  https://openfoam.org
    \\  /    A nd           | Version:  8
     \\/     M anipulation  |
\*---------------------------------------------------------------------------*/
/*   Windows 32 and 64 bit porting by blueCAPE: http://www.bluecape.com.pt   *\
|  Based on Windows porting (2.0.x v4) by Symscape: http://www.symscape.com   |
\*---------------------------------------------------------------------------*/
FoamFile
{
    version     2.0;
    format      ascii;
    class       polyBoundaryMesh;
    location    "constant/Building/polyMesh";
    object      boundary;
}
// * * * * * * * * * * * * * * * * * * * * * * * * * * * * * * * * * * * * * //

7
(
    sides
    {
        type            wall;
        inGroups        List<word> 1(wall);
        nFaces          410;
        startFace       79409;
    }
    buildings_to_air
    {
        type            mappedWall;
        inGroups        List<word> 
2
(
wall
mappedPatch
)
;
        nFaces          3341;
        startFace       79819;
        sampleMode      nearestPatchFace;
        sampleRegion    air;
        samplePatch     Building;
    }
    interior
    {
        type            patch;
        nFaces          3341;
        startFace       83160;
    }
    procBoundary6to7
    {
        type            processor;
        inGroups        List<word> 1(processor);
        nFaces          280;
        startFace       86501;
        matchTolerance  0.0001;
        myProcNo        6;
        neighbProcNo    7;
    }
    procBoundary6to8
    {
        type            processor;
        inGroups        List<word> 1(processor);
        nFaces          400;
        startFace       86781;
        matchTolerance  0.0001;
        myProcNo        6;
        neighbProcNo    8;
    }
    procBoundary6to10
    {
        type            processor;
        inGroups        List<word> 1(processor);
        nFaces          110;
        startFace       87181;
        matchTolerance  0.0001;
        myProcNo        6;
        neighbProcNo    10;
    }
    procBoundary6to11
    {
        type            processor;
        inGroups        List<word> 1(processor);
        nFaces          350;
        startFace       87291;
        matchTolerance  0.0001;
        myProcNo        6;
        neighbProcNo    11;
    }
)

// ************************************************************************* //
