/*--------------------------------*- C++ -*----------------------------------*\
  =========                 |
  \\      /  F ield         | OpenFOAM: The Open Source CFD Toolbox
   \\    /   O peration     | Website:  https://openfoam.org
    \\  /    A nd           | Version:  8
     \\/     M anipulation  |
\*---------------------------------------------------------------------------*/
/*   Windows 32 and 64 bit porting by blueCAPE: http://www.bluecape.com.pt   *\
|  Based on Windows porting (2.0.x v4) by Symscape: http://www.symscape.com   |
\*---------------------------------------------------------------------------*/
FoamFile
{
    version     2.0;
    format      ascii;
    class       scalarListList;
    location    "constant/vegetation";
    object      F;
}
// * * * * * * * * * * * * * * * * * * * * * * * * * * * * * * * * * * * * * //


808
(

2566
(
6.9704415e-05
4.5143232e-05
3.3817155e-05
0.00013292149
3.9769634e-05
7.216138e-05
6.4046683e-05
4.2432765e-05
7.0941232e-05
6.1100522e-05
1.4504346e-05
8.3023533e-06
1.7885696e-05
1.0769335e-05
5.7856598e-05
0.00034373884
0.0028400776
0.00074519256
0.00091868935
0.0016319212
0.0018942606
0.00028434253
1.5446536e-07
1.3766998e-08
1.6100717e-08
6.3533887e-09
1.0028208e-08
3.9504117e-09
1.2027817e-06
2.0130166e-08
1.2954942e-08
1.6792776e-08
6.3234802e-09
1.0835925e-08
1.052623e-08
1.0854315e-06
1.3686636e-06
1.2920909e-06
1.6328288e-06
1.7251024e-06
8.8713134e-07
8.8538461e-07
1.0346383e-06
1.0928589e-06
2.4089528e-06
2.1019625e-06
3.7918966e-06
1.7009655e-05
1.803276e-05
1.0958973e-05
1.1549939e-05
2.7710089e-05
8.8282167e-06
1.4344795e-05
2.1601173e-05
9.3681179e-06
1.357376e-05
2.2988105e-05
1.130623e-06
6.5741211e-06
1.4511969e-08
1.605764e-05
1.537872e-08
1.9133968e-05
1.0404477e-05
7.7520548e-09
1.2180237e-05
9.1350765e-09
2.6115404e-05
3.1107338e-08
1.5987605e-06
8.0717394e-06
2.9284113e-09
1.5170608e-05
1.2267966e-08
2.0320772e-05
1.682688e-08
9.8790432e-06
6.1965976e-09
1.2853229e-05
1.1514594e-08
2.4492975e-05
1.5229216e-08
1.0092365e-06
1.4502051e-06
1.2212657e-06
1.5384413e-06
1.8250092e-06
9.2994939e-07
9.4459332e-07
9.8077006e-07
1.1546425e-06
3.0683361e-06
1.9474819e-06
2.1384392e-05
2.3833113e-05
2.0212075e-05
3.0823741e-05
1.1243519e-05
1.2285469e-05
1.2555387e-05
1.9257342e-05
1.356873e-05
2.1712368e-05
4.2675494e-05
1.4233852e-05
1.6515006e-05
4.4424001e-05
4.6851146e-05
2.4098597e-05
4.6327587e-05
3.0058476e-05
2.9335359e-05
3.4003106e-05
1.5030103e-05
2.1363016e-05
1.5042037e-05
3.4155812e-05
4.081655e-05
3.6624174e-05
3.8665656e-05
3.3041633e-05
1.3824227e-05
2.249833e-05
1.2145353e-05
2.6333079e-05
3.4314544e-05
3.8610751e-05
3.4223091e-05
9.5357017e-06
1.1644295e-05
1.1395345e-05
1.2240321e-05
1.223819e-05
1.2045441e-05
1.2122362e-05
1.2164049e-05
3.0393034e-05
1.2163751e-05
3.0273615e-05
7.7417628e-06
7.2423242e-06
5.9970912e-06
5.6422239e-06
4.7068848e-06
4.4532122e-06
3.7619402e-06
3.5529412e-06
3.0351455e-06
2.8809969e-06
2.488704e-06
1.9078552e-05
2.1970912e-05
1.9561497e-05
2.4750644e-06
2.6522534e-05
2.4771545e-05
2.7770174e-05
2.39601e-05
3.1383349e-05
2.4955606e-06
2.3588471e-06
1.3793837e-05
1.512683e-05
1.2872104e-05
1.5711229e-05
2.4390816e-06
1.2865817e-05
1.5386205e-05
1.5675212e-05
2.2528716e-05
1.7142346e-05
2.0069907e-05
1.5309227e-05
9.8711343e-06
1.0439878e-05
1.0265883e-05
2.5383506e-05
2.4300125e-05
2.8548252e-05
2.5252763e-05
4.0766965e-05
3.0768116e-05
2.1424406e-05
2.2799023e-06
5.0502533e-05
1.0431841e-05
2.4726256e-06
2.8130586e-05
4.7549203e-05
2.9160041e-05
2.7002892e-05
2.4706354e-05
2.7700991e-05
2.8307429e-05
2.9066402e-05
2.5129038e-06
2.2766767e-06
2.4513248e-06
9.6486473e-06
1.0434311e-05
1.0331548e-05
5.0811726e-06
4.8883359e-06
3.8326306e-06
4.1269321e-06
2.4243203e-06
2.7192537e-06
3.3487867e-06
3.1621913e-06
6.2330321e-06
6.5872981e-06
8.4442217e-06
7.991954e-06
1.0604376e-05
1.0874733e-05
1.7013693e-05
1.5450318e-05
1.7453708e-05
1.9007653e-05
2.1895535e-05
1.9476043e-05
1.5408703e-05
1.696785e-05
1.7380761e-05
4.073496e-05
2.5570964e-06
2.5547433e-06
2.7235909e-06
2.8349446e-06
2.425524e-06
2.3507798e-06
2.5188474e-06
2.5317326e-06
2.1710057e-06
2.1681189e-06
2.1117313e-06
2.1285035e-06
8.4984306e-06
8.8226528e-06
8.6036178e-06
8.813253e-06
1.8373414e-06
2.1758946e-06
2.3087599e-06
2.1661171e-06
2.3309025e-06
2.4417117e-06
2.0502024e-06
2.5838029e-06
3.1129649e-06
2.3781983e-06
2.1648939e-06
3.0267957e-06
1.971457e-06
1.4216938e-05
2.2573573e-06
2.2472722e-06
1.3688538e-05
1.5649179e-06
1.7500294e-06
2.1599604e-06
2.2815974e-06
2.3238175e-06
1.598393e-05
1.6453967e-06
1.7938177e-05
1.9433258e-06
8.1700094e-06
8.4299683e-06
8.8236022e-06
4.7300015e-05
8.7945803e-06
5.5782509e-06
3.3147356e-06
5.3716963e-06
4.7459478e-06
3.6099946e-06
4.4868068e-06
2.1621658e-06
3.0190893e-06
4.1631683e-06
3.1505209e-06
6.906401e-06
7.2678904e-06
9.3034796e-06
7.7244435e-06
1.0132572e-05
1.2760226e-05
3.9208798e-05
3.69558e-05
3.7279569e-05
3.8289826e-05
3.3984188e-05
1.6352716e-05
2.2303155e-05
3.7016935e-05
1.0265452e-05
1.2344423e-05
3.8355204e-05
3.8448787e-05
9.0520978e-06
1.1816878e-05
1.0988334e-05
1.2225217e-05
1.2217837e-05
1.1946017e-05
1.2179405e-05
1.2194977e-05
1.2234607e-05
8.3470671e-06
6.7965669e-06
6.3802817e-06
5.3046195e-06
4.9894713e-06
4.2155133e-06
3.9850714e-06
3.3646524e-06
3.1952019e-06
2.7386541e-06
2.6128792e-06
2.4772467e-06
2.1717285e-06
4.06068e-06
2.4832766e-06
2.1642154e-06
4.8132153e-06
6.6462725e-06
2.0872534e-06
2.3996459e-06
2.1413857e-06
2.4231086e-06
1.0055359e-05
8.1923314e-06
1.043593e-05
8.8535608e-06
8.6978697e-06
1.0179476e-05
3.8502238e-06
2.8526543e-06
3.0593799e-06
2.2140232e-06
6.686997e-06
1.0422436e-05
8.6763515e-06
1.7690653e-06
2.170079e-06
2.4679527e-06
2.1617935e-06
2.5327759e-06
2.0460803e-06
2.104073e-06
2.1517352e-06
2.4608767e-06
7.9444441e-06
7.9854202e-06
9.2391491e-06
8.8445471e-06
1.0415002e-05
8.7507388e-06
1.0381191e-05
5.3885053e-06
5.0585505e-06
5.8128247e-06
4.6457311e-06
3.6287458e-06
3.8175348e-06
4.8878146e-06
4.3900388e-06
2.0680232e-06
2.5348452e-06
2.8585677e-06
2.8738979e-06
3.5057887e-06
3.4327945e-06
3.282031e-06
3.0119661e-06
5.8283238e-06
6.4008167e-06
6.8284815e-06
7.0107554e-06
9.1898684e-06
8.4689678e-06
9.5024626e-06
7.5211626e-06
8.8759351e-06
1.1046737e-05
1.026182e-05
1.1426356e-05
4.0202697e-05
3.9050813e-05
1.778407e-06
2.5631614e-06
2.335903e-06
2.3321528e-06
2.5493377e-06
2.2978599e-06
2.1747577e-06
2.7452694e-06
2.9117208e-06
2.6107849e-06
2.817002e-06
3.5556626e-06
2.8782802e-06
2.4741815e-06
2.1777521e-06
2.1944005e-06
2.1198686e-06
1.4726421e-06
1.4441675e-06
2.501727e-06
2.3027851e-06
2.5418086e-06
2.3139609e-06
1.7420973e-06
1.8351138e-06
3.9415145e-06
3.5394446e-06
3.9775423e-06
3.0483091e-06
1.996835e-06
5.5636716e-06
2.4996479e-06
4.3732774e-06
6.2466637e-06
5.4347571e-06
5.1144338e-06
3.3953744e-06
2.9041969e-06
1.7431094e-06
2.9722909e-06
1.4499145e-06
2.2973338e-06
2.9502882e-06
3.051459e-06
2.5173371e-06
6.479055e-06
5.2072242e-06
3.2697728e-06
0.0004276455
0.00017112106
0.0001741642
0.00042392376
0.00095708259
0.00046917721
9.0791071e-05
0.0014854031
0.00022163476
0.00062089357
0.00050524573
0.00053265735
0.004871329
0.00062058524
0.00012266317
0.00017915204
0.00021104206
9.1654476e-05
9.6315595e-05
3.2721009e-05
0.00098768255
5.9558297e-05
5.6838106e-05
0.00012113367
0.00011822992
3.4645256e-05
3.1445312e-05
9.2665003e-05
0.00012644187
0.004486133
0.0001532214
4.1492604e-05
8.65928e-05
1.8792703e-06
0.00011008433
1.6013572e-05
0.00011928488
6.7343325e-06
1.3695047e-05
9.0364266e-06
2.1469791e-05
8.4860938e-05
8.1795699e-05
5.9323047e-05
5.2829098e-05
1.2249916e-07
2.9151521e-07
1.6048214e-05
6.0435082e-08
8.0369699e-07
1.0854709e-07
3.2922289e-07
2.1851562e-05
8.5665787e-08
5.384397e-06
7.2594175e-06
5.6465954e-05
1.5734765e-05
1.4249583e-05
2.4970752e-05
3.0263079e-05
1.3298635e-05
1.279832e-05
0.00019933986
0.00022037915
7.9854903e-05
9.9027875e-05
2.8855137e-05
0.0001484742
0.00029517242
0.00013498261
0.00031318074
1.144678e-07
1.4247956e-05
2.3523968e-08
2.3816359e-05
0.0001868169
1.2896081e-07
0.00018045929
1.8512691e-07
0.00024371942
5.9062149e-05
2.2540368e-06
0.00011146233
2.257739e-07
2.7261589e-05
8.0629175e-08
0.0001635656
8.8940608e-08
0.00026914617
2.3180831e-07
1.5383194e-05
0.00012283274
8.6509585e-08
4.0191168e-06
1.341623e-05
0.00029292817
8.270302e-07
4.3526989e-05
1.7460649e-05
1.3004428e-05
2.0275976e-05
3.5647394e-05
1.3892819e-05
1.2444288e-05
0.00021110647
0.00035789107
0.00019417304
0.00032959431
0.00020195723
0.00038100599
0.00035890388
0.00022283547
2.4993191e-05
2.9339345e-05
2.7022732e-05
3.051425e-05
3.0422691e-05
2.967069e-05
3.0306168e-05
2.3585079e-05
3.0469987e-05
0.00036872711
0.00036223498
2.88716e-05
2.9692974e-05
2.9710895e-05
0.00019974011
0.0001937435
3.3005573e-05
2.8299901e-05
3.4390709e-05
9.9580407e-05
0.00037736854
0.00010927016
0.0003443643
0.00011222142
0.00021845464
2.9286444e-05
9.691784e-05
0.0002037894
0.00021426026
0.00021516448
0.00021674884
3.443372e-05
3.4297548e-05
3.3433146e-05
3.416017e-05
2.8180473e-05
2.9781707e-05
2.9805458e-05
2.3689293e-05
0.00010272645
0.00010119033
0.00010431095
0.00010725665
0.00011201676
0.00011014158
0.00011355227
0.00011073166
0.00010987767
2.9187607e-05
0.00010014174
9.6929806e-05
0.00010026961
9.473618e-05
3.2297157e-05
3.6597299e-05
3.0176562e-05
3.0943522e-05
3.829823e-05
3.4433788e-05
3.8265068e-05
3.4388765e-05
3.8099031e-05
3.3738349e-05
3.7118107e-05
3.3975779e-05
3.7946323e-05
0.00010233548
2.8888457e-05
2.8195382e-05
3.0523917e-05
3.0494303e-05
2.9933071e-05
3.0143124e-05
0.00017509681
0.00021939453
0.00018586081
0.00023584612
0.00029867041
0.00024899424
0.00016949655
0.00020706339
2.9215323e-05
3.6306098e-05
3.0472409e-05
0.00022358602
0.00018758041
0.00018911934
3.0805905e-05
2.3337656e-05
5.285053e-05
5.0073486e-05
3.6326857e-05
3.8993641e-05
2.8977676e-05
6.977166e-05
7.9585489e-05
9.3167416e-05
9.812671e-05
6.736319e-05
6.8166796e-05
6.5015398e-05
6.6902689e-05
2.83907e-05
3.0090889e-05
3.5698001e-05
3.7965304e-05
7.1891581e-05
7.1067821e-05
7.0307088e-05
6.8224692e-05
4.5802973e-05
3.0582542e-05
3.0836336e-05
3.7384342e-05
3.7178823e-05
3.621468e-05
3.7030006e-05
4.9827724e-05
3.252812e-05
3.3235107e-05
6.5818804e-05
4.5694584e-05
3.5191782e-05
7.2731159e-05
3.8644075e-05
3.1633681e-05
3.1910728e-05
3.1954458e-05
3.2894055e-05
3.3567669e-05
3.1855403e-05
3.3114898e-05
3.3250086e-05
2.9159279e-05
2.1684977e-05
3.2954193e-05
6.2279873e-05
2.2872355e-05
2.7393164e-05
3.2199859e-05
3.2232341e-05
2.3169668e-05
2.046798e-05
9.7973857e-05
0.0001022204
0.00010856642
0.00010398027
7.2564163e-05
0.00010899087
9.2368583e-05
4.9850134e-05
4.7451853e-05
3.6048138e-05
4.3891703e-05
3.2161613e-05
3.2112182e-05
9.7159689e-05
9.8599333e-05
5.44261e-05
9.1790297e-05
9.9725614e-05
8.3341372e-05
8.6690689e-05
8.2663583e-05
8.8127319e-05
2.9286349e-05
3.1028462e-05
2.9572712e-05
3.20189e-05
3.2127865e-05
2.9546799e-05
2.8817999e-05
9.8303604e-05
9.1454067e-05
8.8049061e-05
0.00011096993
9.1602106e-05
7.9760236e-05
0.00011208543
3.6509754e-05
4.0885362e-05
2.9429878e-05
3.1885393e-05
9.7401629e-05
3.3418455e-05
3.3474171e-05
2.9821039e-05
2.7000929e-05
3.2125564e-05
2.9833576e-05
3.2212591e-05
2.9843445e-05
0.0001014587
9.9135403e-05
0.00010307249
0.00010057588
0.00010614208
0.00010513668
0.00011352449
0.00010734385
0.00010812762
0.00010573924
0.00011428452
0.00010777163
0.00010664449
0.00010318067
0.00010092278
3.1996119e-05
2.9230378e-05
0.00010057168
9.6849941e-05
9.7562349e-05
9.7289017e-05
0.00010106324
9.8695776e-05
9.8201792e-05
3.5686712e-05
3.3864615e-05
3.8243929e-05
3.8197457e-05
3.7470166e-05
3.7738205e-05
4.110493e-05
3.2194669e-05
3.0314313e-05
3.4842993e-05
3.0759474e-05
3.319353e-05
2.9959738e-05
3.3413463e-05
3.0607683e-05
2.5037499e-05
8.4027497e-05
5.5641128e-05
5.3890774e-05
6.0472163e-05
4.6219506e-05
3.3881016e-05
3.8507289e-05
4.0997033e-05
4.2184795e-05
3.045515e-05
2.9395984e-05
6.1038423e-05
7.1297763e-05
9.8064512e-05
8.8359959e-05
8.8538728e-05
0.00010173607
9.5815557e-05
8.426332e-05
6.6549876e-05
8.5405261e-05
6.9121791e-05
8.2511178e-05
6.6093847e-05
8.4087831e-05
7.836976e-05
3.1074006e-05
2.9989141e-05
3.3349394e-05
3.4791966e-05
9.0583136e-05
7.2346706e-05
8.9386434e-05
7.0075336e-05
9.0386503e-05
7.2393677e-05
7.0345907e-05
8.7217556e-05
3.6112495e-05
3.8824949e-05
3.3325714e-05
3.074383e-05
3.3477861e-05
3.0810876e-05
3.7330173e-05
3.7278383e-05
3.6562428e-05
3.6826665e-05
5.4414164e-05
3.0158119e-05
2.7250049e-05
5.969898e-05
2.6465657e-05
2.4086932e-05
4.6638747e-05
6.630735e-05
2.8981128e-05
2.3887651e-05
4.1853263e-05
3.8317165e-05
8.0436802e-05
3.9946305e-05
3.3851737e-05
4.201423e-05
3.17196e-05
2.0825083e-05
0.013162614
0.00092179149
0.0040406278
0.00034272796
3.0843201e-05
3.3209731e-05
0.0030067859
0.00047871448
0.00010962189
0.00012754145
2.4046509e-05
0.003185613
3.8777875e-05
0.0010367824
3.9448023e-05
0.00031039029
4.4038624e-05
0.00014077001
3.047081e-05
9.5565826e-05
0.00029350861
0.00014063622
0.00022890261
0.0002629849
0.00052208413
7.3166337e-05
0.00024458951
8.6647989e-05
3.6162901e-05
0.00015472226
3.6609994e-05
3.900949e-05
6.5038094e-05
0.00014683112
0.00020631258
6.0827132e-05
8.3319685e-05
4.4758765e-05
3.4548715e-05
0.00014633207
4.5413144e-05
4.931647e-05
4.3210251e-05
3.9710271e-05
4.3771682e-05
7.236087e-05
0.00012621698
4.1991558e-05
7.2392953e-05
4.249559e-05
0.013536537
0.0056957415
0.00011450466
9.7655311e-05
2.8987759e-06
1.8241936e-05
5.6918524e-05
2.2558087e-05
2.7242395e-05
3.114379e-05
3.326946e-05
0.0012074707
0.001466624
0.0015232704
0.0020886031
0.25721251
0.054579407
0.058066663
0.0031949659
0.068124703
0.016235955
0.0058052929
0.0013349005
0.0010039311
0.00037952269
0.00022106307
0.00026670277
0.047368425
0.010074695
0.011654484
0.0044348693
0.0022382838
0.00045524104
0.010431617
8.5821636e-05
0.0004974714
0.00092261461
0.00081100199
0.0016057664
0.00048941389
0.00022007071
0.00041309834
0.0012721525
0.00011396428
7.751326e-05
0.000130124
9.0457376e-05
0.00011163987
0.00031985709
0.0011792231
0.00010152171
8.9265616e-05
0.00072879711
0.1755889
0.006838272
0.028979993
0.045837012
0.010052598
0.00024702243
0.00032263732
0.00033084667
0.00033495705
0.00023783432
0.0002771383
0.00028795726
0.00038547647
0.0003734671
0.00020673271
0.00017765575
6.1829997e-05
6.878045e-06
0.00038770917
6.1533488e-07
0.00025665929
8.2989817e-07
0.0003107079
8.5733574e-07
0.00034760996
5.4770336e-07
0.00022899518
2.7087811e-05
0.00026670838
7.1359392e-07
3.0391595e-05
3.5532001e-05
0.00029914466
7.4237928e-07
3.161338e-05
0.00039390071
6.5503571e-07
4.3425298e-05
3.6918903e-05
0.00036054861
8.4495741e-07
4.1462264e-05
2.627862e-05
0.00021977723
7.6882403e-07
2.9530773e-05
0.000154218
6.3221446e-06
3.5792034e-05
5.2513627e-05
5.6456465e-07
6.5442851e-07
8.0092841e-07
8.8034815e-07
4.1761277e-07
2.8102307e-05
6.8490969e-07
2.9216996e-05
3.4183649e-05
7.7155995e-07
3.2877435e-05
2.4942574e-07
4.6504953e-05
3.8349233e-05
8.8858507e-07
3.9842624e-05
2.5934696e-05
2.9003791e-07
2.6685988e-05
4.5791371e-05
5.5979959e-05
0.00011339415
0.00011553875
0.00011485857
0.00050288917
0.00039810584
0.00060207065
0.00013100228
0.00011304462
0.00013110865
0.0006498757
0.00043636147
0.00054783987
0.00041269171
0.00040689755
0.00038979281
0.00045102046
0.00057197739
0.00013141599
0.00013230317
0.00059111864
0.00011478337
0.00011523493
9.6529201e-05
0.00010534239
4.8477083e-05
5.437469e-05
6.3675049e-05
5.6571644e-05
9.206606e-05
7.8531533e-05
6.6398705e-05
7.5508189e-05
0.00011278002
0.0001118902
0.0001236481
0.00013741777
0.00013150004
0.00014090584
0.00011906392
0.00010624054
9.080612e-05
0.00010214015
7.475761e-05
6.391537e-05
4.7168766e-05
4.9904061e-05
5.3124713e-05
7.589434e-05
7.8376198e-05
7.9753139e-05
7.8918035e-05
8.0681859e-05
8.7899014e-05
8.4544542e-05
7.9952084e-05
8.0966796e-05
0.00037516758
0.00031090701
0.00038959459
0.00029795718
0.00011381848
0.00011572024
0.00011336871
0.0004912938
7.8414251e-05
6.9572429e-05
0.00045356448
5.9593904e-05
6.6853656e-05
0.00012152677
8.3185624e-05
0.0001021421
0.0001328669
0.00011140194
0.00010476899
0.00011280676
0.00013803709
0.0001315193
0.00014056937
0.00011692066
0.00012724635
0.0001385505
0.00049693382
8.4751572e-05
9.5259424e-05
0.00011104278
0.00053725952
9.9082662e-05
7.416398e-05
5.8917693e-05
6.4624695e-05
0.00042643256
7.8223356e-05
7.7335552e-05
7.4362227e-05
0.00042040929
7.6798466e-05
8.3259797e-05
7.9522671e-05
8.5993785e-05
0.0001325841
0.00013790461
0.00013787832
0.00013484985
0.00013287608
0.00013756607
0.00011429341
0.00011557885
0.00011050831
0.00011272126
0.00012172664
0.00061462988
0.00012452416
0.00012528729
0.0006210719
0.00012493275
8.7666896e-05
0.00010442602
0.00012643558
0.00014302776
0.00010207979
0.00012537205
0.00012433773
0.00012065333
0.00010911328
0.0001052352
9.3882449e-05
9.024919e-05
8.0033052e-05
7.6964635e-05
7.0127768e-05
6.6837444e-05
0.00012824488
0.00013906843
0.00013094783
0.00014127307
0.0001318016
0.00014152818
0.0001328619
0.0001408863
5.0259279e-05
5.2262498e-05
6.1199092e-05
5.8846545e-05
8.2301931e-05
6.9392963e-05
7.2495399e-05
0.00011844341
0.00012841736
0.00013313097
0.00013071682
0.00013428942
0.00014339225
0.00011425986
0.00011469437
0.00011043244
0.00010197223
8.7039674e-05
9.4318237e-05
9.802994e-05
9.8149058e-05
7.5494057e-05
7.3102181e-05
6.9995788e-05
6.8683558e-05
4.668486e-05
4.7491379e-05
6.3700449e-05
7.6676529e-05
7.6858327e-05
7.7690497e-05
7.9173252e-05
8.04523e-05
7.9576466e-05
7.9712642e-05
7.9316315e-05
7.5970617e-05
8.1300713e-05
8.3937287e-05
8.593094e-05
7.8933588e-05
8.5108911e-05
8.042466e-05
8.0236734e-05
8.0552961e-05
8.0594282e-05
0.00037969211
0.00041741055
0.00036577829
0.0003365959
0.000395415
0.00042260807
0.00035070273
0.00033183702
0.00013758321
0.00012906308
0.00012253307
0.00011265386
0.00010869058
0.00012088584
0.00014151317
0.00013850905
0.00013104194
0.00014245948
0.00014285837
0.00013936696
0.00013220658
0.00014231674
0.00014171165
0.00013796312
0.00014210113
0.00013799523
0.00013969881
0.00013613127
0.00013300001
0.0001423845
0.00013700782
0.00014195811
7.5278858e-05
7.7705751e-05
7.2395123e-05
6.9901892e-05
6.1746568e-05
5.8959316e-05
6.4246993e-05
6.7249675e-05
0.0001020571
0.00012201915
9.0572448e-05
8.2961972e-05
9.781667e-05
0.00011745097
0.00012553596
0.00010005068
0.0001074315
0.00013210789
0.00013383929
0.00013687733
8.7946267e-05
7.1840899e-05
9.1546354e-05
8.2070068e-05
0.00010691003
9.4097529e-05
0.00010299531
8.5253559e-05
7.4631741e-05
6.4383326e-05
6.0530836e-05
5.8876278e-05
7.2582839e-05
6.3077611e-05
7.7975147e-05
6.7105895e-05
7.774036e-05
6.7418737e-05
7.5273948e-05
6.3748721e-05
7.6126966e-05
6.6961775e-05
8.4295148e-05
7.1597933e-05
8.2494181e-05
6.9103055e-05
8.6216011e-05
8.5308372e-05
0.00010117414
0.00012291793
0.00012389376
0.00010542045
0.00010464009
0.00012517209
0.00012515929
0.00010583276
0.00013741823
0.00013033168
0.00012790117
0.00011685929
0.00011300047
0.00010138884
9.7597019e-05
8.672139e-05
8.3304147e-05
7.422424e-05
7.2004717e-05
9.5255701e-05
0.00013535525
0.00014119905
0.00014183166
0.00014181029
0.00012263034
0.00012675704
0.00013713989
0.00011010445
0.00010599874
9.05087e-05
9.4199608e-05
7.3994292e-05
7.1890366e-05
7.7661462e-05
7.8490009e-05
8.0352437e-05
8.0106975e-05
8.1180496e-05
8.1464368e-05
7.9923015e-05
8.0318715e-05
8.0261279e-05
0.00041944531
0.00039304804
0.00042511219
0.00038758009
0.00013343852
0.00012763806
0.00012494407
0.00014148021
0.00014151592
0.00014184877
0.00014211357
0.00014192836
0.00014207607
0.00014089003
0.00014225059
0.00014158566
7.5539368e-05
7.2706928e-05
6.2005194e-05
6.4403084e-05
0.00011551955
0.00010297491
0.00013465009
0.00012165159
0.00012571432
0.0001572637
7.5673328e-05
7.8618983e-05
9.1828852e-05
8.8546565e-05
7.3132901e-05
6.8551867e-05
8.6085016e-05
6.7880991e-05
6.7647571e-05
6.552144e-05
6.6214338e-05
8.1897697e-05
8.0991752e-05
0.00010180363
0.00010374526
0.00010457209
0.00010601822
0.00010589707
0.0037235754
0.0016795853
0.0052040242
0.00010992288
0.00013720262
8.9340994e-05
0.00010302028
5.2137576e-05
6.4354119e-05
7.6196038e-05
0.00010711764
0.0039784649
0.0013628274
0.0042115903
7.2711852e-05
7.9012621e-06
7.2081569e-06
0.00028437646
6.1066323e-05
4.0234261e-05
4.1113919e-05
0.00069693864
4.4297328e-05
0.0025131257
0.0024277444
0.00056246351
0.00039201185
0.00049906661
7.3444032e-05
6.0215069e-05
4.9227772e-05
0.00091321835
0.00018568733
5.7320256e-05
2.6555622e-05
9.2402691e-05
9.0425971e-05
0.0014094581
0.0024074804
0.0010570609
0.0017712761
0.00058549549
2.8954946e-05
2.1620049e-05
2.8197416e-05
2.355083e-05
2.2966835e-05
3.1361574e-05
3.2028011e-05
2.6074529e-05
2.5412551e-05
2.1071039e-05
7.0655342e-08
2.9740195e-05
7.9475978e-06
2.8504243e-05
6.9474936e-08
2.7465957e-05
5.7699679e-08
2.4151198e-05
5.4911881e-08
2.2391563e-05
3.0472442e-06
3.0552845e-05
5.2879507e-08
3.4118217e-06
8.8776395e-06
3.1909032e-05
3.6363329e-08
3.7261856e-06
2.966085e-06
2.6758277e-05
6.4626394e-08
2.7414362e-06
2.474485e-06
2.4771904e-05
6.2972702e-08
2.6712928e-06
2.4157091e-06
2.1793285e-05
1.7510776e-08
2.390475e-06
7.0588051e-08
1.0338528e-06
6.7934053e-08
5.9623183e-08
4.9315894e-08
3.1363455e-06
6.6508139e-08
3.2463105e-06
5.5707384e-06
1.1032944e-07
4.364639e-06
2.8886863e-06
6.6289495e-08
2.8138949e-06
2.537577e-06
6.1320992e-08
2.6033517e-06
2.3668012e-06
3.6792712e-08
2.3437119e-06
1.1253282e-05
4.6498066e-05
4.8371319e-05
1.1529446e-05
3.3105156e-05
3.3508938e-05
3.4101191e-05
3.9768099e-05
3.5826649e-05
3.7144679e-05
4.1387684e-05
3.5417114e-05
1.1322506e-05
4.3864788e-05
1.1527488e-05
4.3247492e-05
5.4234425e-06
6.1313675e-06
9.9833879e-06
6.5668606e-06
3.3743809e-05
3.6045657e-05
3.7233182e-05
3.6571571e-05
3.782898e-05
3.1772523e-05
3.9123384e-05
4.4209162e-05
3.9132989e-05
4.2855308e-05
3.9105678e-05
1.1687044e-05
1.0909925e-05
9.3562116e-06
1.0420481e-05
5.2608313e-06
4.8575723e-06
4.3866746e-06
4.7329332e-06
4.2949616e-06
4.2077808e-06
7.3712882e-06
6.9608241e-06
7.5439874e-06
8.1538925e-06
9.081679e-06
8.3728618e-06
2.4883206e-05
2.9381632e-05
2.8986178e-05
2.5193401e-05
1.0355129e-05
1.061643e-05
8.5482579e-06
9.3099824e-06
6.7017153e-06
8.1500724e-06
9.5819652e-06
8.8001131e-06
1.0486434e-05
1.1607414e-05
1.0657124e-05
1.0896407e-05
6.1703584e-06
3.5139433e-05
6.223079e-06
3.5274868e-05
6.259991e-06
6.2343439e-06
3.7813746e-05
5.3271569e-06
5.74462e-06
3.9839205e-05
6.3915488e-06
5.8962921e-06
6.2210733e-06
5.3029937e-06
5.5288685e-06
6.9314366e-06
6.3704261e-06
6.9972793e-06
8.4223421e-06
4.1433277e-05
7.761473e-06
6.9950283e-06
3.9300411e-05
7.5581261e-06
1.1455437e-05
1.0434558e-05
1.0558313e-05
1.1484424e-05
1.0627709e-05
1.0583424e-05
3.9487818e-05
9.4219816e-06
4.6148334e-05
9.377232e-06
9.2521548e-06
4.5939284e-05
9.3555301e-06
6.1587848e-06
6.6037106e-06
6.7748879e-06
7.3255601e-06
7.521574e-06
8.1505903e-06
8.3753297e-06
9.1424294e-06
9.4778268e-06
1.3126064e-05
1.1148927e-05
1.100902e-05
1.1531644e-05
1.1307404e-05
1.1375689e-05
1.1096864e-05
1.1520117e-05
1.1302014e-05
5.6158568e-06
5.8428392e-06
8.1316851e-06
7.2657883e-06
1.1432946e-05
1.1400511e-05
1.1417089e-05
1.034431e-05
9.0224166e-06
9.6657785e-06
9.9167626e-06
1.001576e-05
5.1189454e-06
4.9861295e-06
4.4954414e-06
4.6123534e-06
4.2269726e-06
4.1886121e-06
7.1111593e-06
7.2211516e-06
7.0876507e-06
6.6425941e-06
7.2936273e-06
7.7372015e-06
7.8869009e-06
7.9420626e-06
8.7774287e-06
8.8333533e-06
8.0983355e-06
8.5994014e-06
2.8514561e-05
2.7287355e-05
3.0443141e-05
3.1955971e-05
3.0044451e-05
3.1814743e-05
2.7397638e-05
2.8881771e-05
1.0984715e-05
1.0165504e-05
1.096434e-05
9.6516879e-06
9.1933514e-06
9.6652883e-06
1.1547715e-05
1.1400352e-05
1.1298663e-05
1.0711946e-05
1.1423687e-05
1.0794469e-05
1.1419364e-05
1.1232313e-05
1.1084939e-05
1.0485781e-05
1.122215e-05
1.0526287e-05
1.1505967e-05
1.1259875e-05
1.1291178e-05
1.0614268e-05
1.1249348e-05
1.0601961e-05
7.768217e-06
9.4454627e-06
7.2254872e-06
6.5979298e-06
7.765054e-06
9.2166068e-06
7.9926126e-06
9.9602287e-06
9.4029743e-06
7.5044373e-06
1.0031326e-05
1.0336825e-05
6.1885926e-06
5.3627543e-06
6.209269e-06
5.4960439e-06
6.246821e-06
5.442337e-06
6.2431904e-06
5.5059175e-06
5.4545015e-06
5.2061566e-06
5.5983946e-06
5.7028328e-06
6.212924e-06
6.2495782e-06
6.0534066e-06
5.8483048e-06
6.3337733e-06
5.4675453e-06
5.4295844e-06
5.2317314e-06
6.2102623e-06
5.5444063e-06
7.0220336e-06
5.9263489e-06
6.6323225e-06
5.6020068e-06
7.0957383e-06
6.8926178e-06
8.1862283e-06
7.1086278e-06
7.9721937e-06
6.6508754e-06
7.1691493e-06
5.9032478e-06
7.3621002e-06
6.4820818e-06
7.7739577e-06
9.4019602e-06
9.394227e-06
7.8606951e-06
7.6354761e-06
9.2896169e-06
9.3284503e-06
7.8430744e-06
3.6959304e-05
3.744746e-05
3.5331488e-05
3.381701e-05
3.7671027e-05
3.9600179e-05
3.7456726e-05
3.7058188e-05
3.9039381e-05
3.7036073e-05
3.6760842e-05
3.8925008e-05
3.7038301e-05
3.740269e-05
3.8765484e-05
3.7053059e-05
3.7237395e-05
3.2359177e-05
3.3385681e-05
3.1694856e-05
3.0298538e-05
3.2339585e-05
3.0835917e-05
2.9808217e-05
2.9358598e-05
3.2456976e-05
3.4227243e-05
3.294543e-05
3.9511002e-05
3.4218885e-05
3.3845576e-05
3.5848085e-05
3.6786881e-05
3.5376913e-05
3.471376e-05
4.1305769e-05
3.5330627e-05
6.2894738e-06
6.44069e-06
6.9522613e-06
7.135976e-06
7.7241664e-06
7.933787e-06
8.610334e-06
8.861812e-06
9.840323e-06
9.910738e-06
3.6190498e-05
3.6507649e-05
3.5122811e-05
1.0837745e-05
3.6207665e-05
3.6192183e-05
1.1317152e-05
3.4861132e-05
3.5311563e-05
2.3727589e-05
2.416994e-05
2.6878957e-05
2.6415224e-05
2.3287429e-05
1.1153657e-05
3.6180601e-05
3.6161232e-05
1.1294199e-05
3.0686275e-05
3.021334e-05
2.7374814e-05
2.7845974e-05
3.112834e-05
3.1599709e-05
3.4376781e-05
3.3922447e-05
1.0830576e-05
3.6029708e-05
3.4158061e-05
1.0798977e-05
9.283905e-06
9.574225e-06
6.939798e-06
6.7824906e-06
7.484425e-06
7.6823056e-06
8.5428348e-06
8.3170181e-06
3.1032718e-05
3.2845764e-05
3.2704938e-05
3.1162129e-05
1.0768868e-05
1.0459048e-05
1.0266418e-05
3.6180067e-05
3.6155981e-05
1.134322e-05
1.1314665e-05
1.1353166e-05
3.6203415e-05
3.5734615e-05
2.5073481e-05
2.4619466e-05
2.5530808e-05
2.5979259e-05
1.11972e-05
1.1144055e-05
1.1187563e-05
3.6146366e-05
1.1280419e-05
1.128286e-05
1.1269456e-05
2.922381e-05
2.9711006e-05
2.8751082e-05
2.8290491e-05
3.2585802e-05
3.2101297e-05
3.3052021e-05
3.3498257e-05
3.9615321e-05
3.9016041e-05
3.9559638e-05
3.932848e-05
4.3782268e-05
3.4062449e-05
8.8944472e-06
8.0918988e-06
1.0513861e-05
9.3632299e-06
9.0768325e-06
1.1742822e-05
5.4572137e-06
5.4721913e-06
5.5094371e-06
5.5033953e-06
5.4070108e-06
5.5416759e-06
6.1539423e-06
5.9985227e-06
6.3095665e-06
6.0819749e-06
7.5107241e-06
6.7879927e-06
6.6059665e-06
8.3320434e-06
7.0040025e-06
6.8236109e-06
6.1396356e-06
6.2959347e-06
7.8699512e-06
7.8597439e-06
7.7775874e-06
7.8043527e-06
0.00073816916
0.00035908352
0.00064996768
0.0061080067
0.00015979695
0.0014546618
0.00065976009
0.00016767739
0.00020833958
0.0015626166
2.2525213e-05
4.7952152e-05
3.3691706e-05
6.6200586e-05
5.4293076e-05
0.0001880539
0.00051828838
3.2084035e-05
3.7909837e-05
9.7912718e-06
1.5481471e-05
2.5247177e-05
5.8297438e-05
4.9831776e-05
0.0007669186
0.0044295335
0.0011702037
0.00058669537
1.9771904e-05
1.0218485e-05
1.6570632e-05
5.0753194e-08
2.6088978e-06
4.2328014e-06
3.0281398e-06
3.8799675e-07
3.0249371e-06
6.5696592e-06
6.5475126e-06
6.4783951e-06
6.5359714e-06
4.3231901e-06
6.441893e-06
5.4650092e-06
6.5885413e-06
6.7457398e-06
6.767827e-06
6.01769e-06
5.5735124e-06
5.567228e-06
5.5418357e-06
5.5419638e-06
5.5289749e-06
5.519441e-06
5.4737846e-06
5.4477598e-06
5.1538631e-06
4.8321725e-06
6.1376598e-06
6.5620517e-06
6.1215747e-06
6.5561414e-06
6.0559577e-06
6.5019494e-06
6.5210008e-06
6.1108562e-06
4.4524661e-06
6.0164429e-06
6.3480362e-06
6.0830107e-06
5.2929153e-06
6.1406898e-06
6.6247105e-06
6.6783879e-06
6.1994144e-06
6.4597515e-06
6.2089717e-06
5.8170954e-06
5.6550358e-06
5.3546547e-06
5.5474757e-06
5.5420495e-06
5.5402137e-06
5.5358831e-06
5.5073523e-06
5.4925273e-06
5.4046688e-06
5.3214078e-06
6.134462e-06
6.1294249e-06
6.0796269e-06
6.0971454e-06
5.9318274e-06
5.7322898e-06
6.1473194e-06
6.1642791e-06
5.9438859e-06
0.00088343309
0.00057183772
0.00026646654
0.00024863489
0.00037470529
0.00032603396
0.0002278011
0.00028488846
0.00026232405
7.7967722e-05
4.2156049e-05
0.00032756507
0.00092943319
9.4349708e-05
6.4979779e-06
0.00011406217
5.3896209e-06
1.8516567e-05
1.9638374e-05
5.3557744e-06
2.3183895e-05
0.00080167042
0.0001677187
3.5651883e-05
1.3693786e-05
2.0608974e-05
3.9819378e-05
7.2959934e-06
6.6270462e-06
6.0464335e-06
7.3910558e-06
6.3197859e-05
2.8066916e-05
3.1443864e-05
9.4002985e-05
4.694421e-05
1.5924145e-05
6.3514763e-06
6.3534283e-06
6.1688555e-06
8.0700857e-05
1.9610545e-05
6.8435355e-06
5.8398771e-06
6.434768e-06
5.8184219e-06
6.7548351e-06
0.0015434171
0.00060664874
7.2855932e-06
7.1521749e-06
7.5285821e-06
6.8718038e-06
4.7008656e-05
4.7417106e-05
1.6103308e-08
7.4242382e-06
1.7085219e-08
7.0254293e-06
7.701823e-07
7.5468597e-06
2.72631e-08
1.0408688e-06
6.4302493e-06
2.4079001e-07
1.3511906e-06
7.4920976e-07
6.9717669e-06
5.837551e-06
9.4340276e-07
4.5238784e-05
7.3792547e-08
3.8679468e-05
1.3000051e-08
1.7160877e-08
8.0622919e-07
9.5821994e-09
8.8178392e-07
1.9031694e-06
7.8491412e-06
2.3268269e-05
2.2800428e-06
1.0725979e-05
7.3389326e-07
1.1638246e-05
5.1776546e-05
1.0835292e-05
1.076671e-05
5.2617123e-05
5.1768214e-05
1.1946473e-05
9.9597358e-06
1.023316e-05
5.5581368e-05
2.6229666e-06
2.3465754e-06
1.3681044e-06
1.7405776e-06
1.9809029e-06
2.6299431e-06
2.6420592e-06
2.6503232e-06
2.6445376e-06
2.722883e-06
2.6577153e-06
2.717429e-06
2.3037256e-06
2.6709403e-06
1.3265549e-06
2.2426929e-06
7.2666674e-06
7.2219841e-06
2.4417589e-06
1.6848041e-06
2.2209304e-06
2.4383042e-06
1.1415777e-05
2.4313011e-06
2.418805e-06
1.1394202e-05
2.429049e-06
2.4782423e-06
2.1666085e-06
2.6998798e-06
1.607488e-06
2.0781047e-06
2.0150709e-06
2.0552113e-06
2.2416774e-06
2.2697737e-06
1.3679507e-05
1.3760103e-05
1.3828078e-05
1.3801222e-05
1.3892165e-05
1.3894224e-05
2.8323737e-06
2.6009315e-06
1.3499003e-05