/*--------------------------------*- C++ -*----------------------------------*\
  =========                 |
  \\      /  F ield         | OpenFOAM: The Open Source CFD Toolbox
   \\    /   O peration     | Website:  https://openfoam.org
    \\  /    A nd           | Version:  8
     \\/     M anipulation  |
\*---------------------------------------------------------------------------*/
/*   Windows 32 and 64 bit porting by blueCAPE: http://www.bluecape.com.pt   *\
|  Based on Windows porting (2.0.x v4) by Symscape: http://www.symscape.com   |
\*---------------------------------------------------------------------------*/
FoamFile
{
    version     2.0;
    format      ascii;
    class       labelListList;
    location    "constant/vegetation";
    object      globalFaceFaces;
}
// * * * * * * * * * * * * * * * * * * * * * * * * * * * * * * * * * * * * * //


808
(

2566
(
2
3
4
5
6
7
8
9
10
11
12
13
14
15
16
17
18
19
20
21
22
23
24
25
26
27
28
29
30
31
32
33
34
35
36
37
38
39
40
41
42
43
44
45
46
47
48
49
50
51
52
53
54
55
56
57
58
59
60
61
62
63
64
65
66
67
68
69
70
71
72
73
74
75
76
77
78
79
80
81
82
83
84
85
86
87
88
89
90
91
92
93
94
95
96
97
98
99
100
101
102
103
104
105
106
107
110
120
134
135
136
165
166
178
194
195
196
229
298
301
302
303
330
332
333
334
335
336
337
338
342
343
344
345
346
347
348
349
350
351
352
356
360
364
368
372
376
380
384
388
392
396
397
398
399
400
401
402
403
404
405
406
407
408
409
410
411
412
413
414
415
416
417
418
419
420
421
422
423
424
425
426
427
428
429
431
432
441
442
443
444
445
446
447
448
449
450
455
456
457
458
459
460
461
462
463
464
465
466
467
478
479
480
481
482
483
513
514
515
516
517
518
519
520
521
540
567
568
569
570
577
578
579
580
633
634
635
636
637
638
639
640
641
642
643
644
645
646
647
648
649
650
651
652
653
654
655
656
657
658
659
660
661
662
663
664
665
666
667
668
669
670
671
672
673
674
675
676
677
678
679
680
681
682
683
684
685
686
687
722
724
725
727
739
740
741
742
743
744
745
746
747
749
750
751
752
753
754
755
756
757
759
761
763
765
767
769
771
773
775
777
779
780
781
782
783
784
785
786
787
788
789
790
791
792
793
794
795
796
797
798
799
800
801
802
807
808
809
810
811
814
815
816
817
818
819
820
821
822
823
824
825
826
827
828
829
830
831
832
833
834
835
836
837
838
839
840
846
847
848
849
850
851
852
853
854
855
856
857
880
881
895
896
897
898
899
900
901
902
903
904
905
906
907
911
912
913
914
915
916
917
918
919
920
921
922
923
924
951
952
953
954
955
956
957
958
959
960
961
962
963
964
965
966
967
968
969
970
971
974
976
977
979
980
981
982
984
985
986
987
988
989
990
998
1001
1002
1003
1004
1005
1007
1008
1009
1010
1011
1019
1020
1021
1022
1028
1029
1037
1038
1057
1058
1059
1061
1066
1067
1068
1069
1070
1071
1072
1073
1074
1075
1076
1077
1078
1079
1080
1087
1088
1089
1093
1094
1095
1096
1097
1098
1099
1100
1101
1102
1103
1104
1105
1106
1107
1108
1109
1168
1169
1170
1189
1190
1191
1192
1193
1194
1195
1197
1199
1200
1201
1202
1203
1204
1205
1206
1213
1215
1216
1217
1218
1221
1222
1223
1224
1225
1226
1227
1228
1229
1230
1231
1232
1233
1234
1235
1236
1237
1247
1248
1249
1250
1251
1252
1253
1255
1258
1266
1267
1280
1281
1282
1283
1284
1286
1287
1293
1302
1303
1304
1305
1306
1307
1308
1309
1310
1311
1312
1313
1314
1315
1322
1323
1331
1332
1333
1334
1344
1345
1346
1347
1348
1349
1350
1351
1352
1353
1354
1355
1356
1361
1374
1375
1376
1377
1378
1379
1380
1381
1382
1383
1384
1385
1386
1387
1388
1389
1390
1391
1392
1393
1394
1395
1396
1397
1398
1399
1400
1401
1402
1403
1404
1405
1406
1407
1408
1413
1415
1416
1417
1418
1419
1421
1422
1423
1424
1429
1430
1431
1432
1436
1437
1440
1441
1447
1448
1449
1450
1451
1452
1453
1454
1456
1457
1458
1460
1461
1462
1463
1464
1465
1466
1467
1471
1472
1473
1474
1478
1479
1484
1485
1486
1487
1490
1491
1492
1493
1494
1495
1496
1497
1498
1499
1500
1501
1502
1503
1504
1505
1506
1507
1508
1509
1510
1511
1512
1513
1514
1515
1520
1521
1522
1523
1527
1529
1531
1533
1535
1536
1539
1548
1549
1550
1551
1552
1553
1554
1555
1556
1557
1559
1563
1564
1565
1598
1599
1602
1603
1606
1607
1638
1639
1640
1641
1642
1643
1644
1645
1646
1647
1648
1649
1650
1651
1652
1653
1654
1689
1690
1691
1692
1693
1730
1731
1732
1733
1758
1759
1760
1761
1786
1789
1790
1792
1793
1804
1805
1806
1807
1808
1810
1811
1812
1813
1814
1815
1816
1817
1818
1819
1820
1831
1832
1833
1834
1835
1836
1837
1850
1851
1852
1853
1854
1855
1856
1857
1888
1889
1906
1907
1922
1923
1924
1925
1926
1927
1928
1929
1930
1931
1972
1973
1974
1975
1976
1977
1978
1979
1996
1997
1998
1999
2000
2001
2002
2003
2004
2005
2006
2007
2008
2009
2010
2011
2012
2013
2014
2015
2016
2018
2021
2022
2028
2029
2030
2031
2032
2036
2039
2040
2041
2042
2043
2044
2045
2046
2047
2048
2049
2050
2051
2052
2053
2055
2057
2059
2060
2061
2062
2063
2065
2066
2067
2068
2069
2070
2071
2072
2073
2077
2078
2079
2080
2083
2084
2085
2087
2088
2096
2097
2099
2101
2123
2124
2125
2184
2185
2212
2214
2218
2221
2228
2229
2230
2231
2232
2233
2234
2235
2236
2237
2238
2239
2240
2241
2242
2243
2244
2245
2246
2247
2248
2249
2250
2251
2252
2253
2254
2255
2256
2257
2258
2259
2260
2261
2262
2263
2264
2265
2267
2268
2269
2270
2271
2272
2273
2274
2275
2276
2277
2278
2279
2280
2281
2282
2283
2284
2285
2286
2287
2288
2289
2290
2291
2292
2293
2294
2295
2296
2297
2298
2299
2300
2301
2302
2303
2304
2305
2306
2307
2308
2309
2310
2311
2312
2313
2314
2315
2320
2321
2322
2323
2324
2325
2326
2327
2328
2329
2330
2331
2332
2333
2334
2335
2336
2337
2338
2339
2340
2343
2345
2346
2347
2348
2349
2350
2351
2359
2361
2363
2365
2367
2369
2370
2371
2375
2377
2378
2379
2380
2389
2390
2391
2392
2393
2394
2395
2396
2397
2398
2399
2400
2407
2409
2411
2413
2415
2417
2419
2421
2423
2425
2427
2428
2429
2430
2431
2432
2433
2434
2435
2442
2444
2446
2448
2449
2452
2453
2454
2455
2456
2457
2458
2459
2460
2461
2462
2463
2464
2465
2466
2467
2468
2469
2470
2471
2472
2473
2474
2478
2479
2480
2484
2485
2486
2490
2491
2492
2496
2497
2498
2499
2500
2501
2502
2503
2504
2511
2512
2513
2517
2518
2519
2520
2521
2522
2537
2538
2539
2540
2541
2542
2543
2544
2545
2546
2550
2551
2552
2553
2554
2556
2560
2564
2568
2572
2576
2580
2584
2588
2592
2596
2600
2601
2610
2611
2616
2617
2618
2619
2628
2629
2630
2631
2632
2633
2634
2644
2645
2646
2647
2648
2649
2650
2651
2652
2653
2654
2655
2656
2657
2658
2659
2660
2661
2662
2663
2664
2665
2666
2667
2668
2669
2670
2671
2672
2687
2688
2689
2690
2691
2692
2693
2694
2695
2696
2703
2704
2705
2706
2707
2708
2709
2710
2711
2712
2713
2714
2715
2716
2717
2718
2719
2720
2721
2722
2745
2746
2747
2748
2749
2750
2751
2752
2753
2754
2755
2756
2784
2785
2786
2787
2788
2789
2790
2791
2792
2793
2794
2795
2796
2797
2798
2799
2800
2801
2802
2803
2806
2807
2808
2809
2810
2811
2812
2813
2814
2815
2816
2817
2818
2819
2820
2821
2822
2823
2824
2825
2826
2827
2836
2837
2838
2839
2840
2841
2852
2853
2854
2855
2856
2857
2858
2859
2873
2874
2877
2880
2883
2886
2889
2892
2895
2898
2901
2904
2910
2915
2918
2919
2928
2929
2930
2931
2932
2933
2934
2935
2936
2937
2938
2939
2940
2947
2948
2949
2950
2951
2954
2955
2956
2957
2958
2959
2960
2961
2962
2963
2975
2976
2977
2978
2979
2980
2991
2992
2993
2994
2995
2996
2997
2998
2999
3000
3002
3003
3004
3005
3006
3007
3008
3009
3010
3011
3012
3017
3018
3019
3025
3026
3027
3028
3031
3032
3033
3034
3043
3061
3062
3073
3074
3079
3080
3081
3382
3383
3395
3397
3402
3403
3415
3416
3445
3447
4471
4515
4516
6040
6190
6191
6192
6193
6194
6195
6196
6197
6198
6199
6200
6201
6202
6203
6204
6205
6206
6207
6208
6209
6210
6211
6212
6213
6214
6215
6216
6217
6218
6219
6220
6221
6222
6223
6224
6225
6226
6227
6228
6229
6230
6231
6232
6233
6234
6235
6236
6237
6238
6239
6240
6241
6242
6243
6244
6245
6246
6247
6248
6249
6250
6251
6252
6253
6254
6255
6256
6257
6258
6259
6260
6261
6262
6263
6264
6265
6268
6269
6275
6277
6279
6280
6281
6282
6283
6288
6290
6292
6304
6305
6306
6307
6328
6329
6330
6331
6332
6333
6334
6335
6336
6337
6340
6341
6342
6343
6344
6345
6347
6349
6351
6353
6354
6355
6356
6357
6358
6361
6363
6365
6367
6369
6371
6383
6384
6385
6386
6406
6407
6408
6409
6410
6411
6418
6419
6420
6424
6425
6426
6430
6431
6432
6433
6434
6435
6436
6437
6438
6439
6440
6441
6442
6443
6444
6451
6452
6453
6456
6457
6458
6462
6463
6464
6481
6482
6483
6484
6485
6486
6501
6515
6516
6517
6518
6519
6520
6546
6550
6554
6558
6562
6566
6570
6574
6578
6582
6587
6588
6589
6590
6603
6604
6605
6606
6615
6616
6617
6618
6619
6620
6621
6622
6623
6624
6625
6626
6627
6628
6629
6630
6631
6632
6633
6634
6635
6636
6637
6638
6639
6640
6641
6642
6643
6644
6667
6668
6669
6670
6671
6672
6673
6674
6691
6692
6693
6694
6695
6696
6701
6702
6703
6704
6705
6706
6759
6760
6761
6762
6763
6764
6765
6766
6767
6768
6769
6770
6795
6796
6797
6798
6799
6800
6801
6802
6803
6804
6805
6806
6809
6810
6811
6812
6813
6814
6815
6816
6817
6818
6819
6820
6821
6822
6823
6824
6825
6826
6827
6828
6829
6830
6831
6832
6833
6834
6835
6836
6837
6838
6839
6840
6841
6842
6843
6844
6864
6865
6866
6867
6868
6869
6870
6871
6890
6891
6892
6899
6902
6903
6904
6905
6906
6907
6908
6909
6910
6911
6912
6913
6947
6952
6953
6954
6955
6956
6957
6961
6963
6964
6965
6966
6967
6968
6969
6970
6971
6972
6973
6974
6975
6984
6987
6990
6993
6996
6999
7002
7005
7008
7011
7013
7015
7016
7017
7018
7019
7020
7021
7022
7027
7028
7030
7031
7033
7039
7040
7041
7042
7043
7044
7046
7047
7049
7050
7052
7053
7055
7056
7057
7058
7059
7060
7061
7062
7063
7064
7065
7066
7078
7079
7080
7081
7090
7091
7092
7095
7096
7097
7098
7099
7100
7101
7122
7123
7127
7128
7142
7143
7144
7145
7146
7147
7148
7149
7150
7154
7155
7159
7160
7164
7165
7169
7172
7175
7176
7177
7201
7213
7214
7215
7216
7217
7218
7220
7221
7222
7223
7224
7225
7226
7227
7228
7229
7230
7231
7232
7233
7234
7235
7236
7237
7248
7249
7250
7251
7300
7301
7302
7804
7805
7806
7808
7809
7811
7814
7816
7818
7822
7823
7824
7825
7827
7828
7829
7835
7839
7846
7850
7854
7855
7856
7857
7858
7867
7870
7894
7895
7896
7897
7900
7917
7918
7938
7940
7941
7944
7946
7947
7950
7962
7964
7970
8040
8043
8047
8051
8055
8059
8063
8066
8070
8075
8079
8090
8091
8092
8093
8094
8095
8096
8097
8098
8099
8100
8101
8102
8113
8114
8115
8116
8121
8122
8204
8207
8209
8212
8215
8218
8221
8224
8227
8230
8233
8237
8238
8239
8240
8241
8242
8248
8249
8252
8286
8317
8318
8319
8320
8321
9243
9244
9245
9246
9247
10189
10751
10752
10753
10754
10757
10758
10759
10761
10762
10763
10764
10765
10766
10768
10769
10770
10773
10774
10775
10776
10777
10782
10783
10784
10785
10786
10787
10788
10793
10794
10795
10796
10797
10798
10799
10802
10803
10804
10805
10806
10807
10815
10817
10818
10819
10820
10821
10822
10823
10824
10825
10826
10827
10828
10829
10862
10863
10864
10865
10866
10867
10868
10869
10870
10871
10872
10873
10874
10875
10876
10877
10878
10879
10880
10881
10882
10883
10884
10885
10886
10887
10888
10889
10890
10891
10892
10893
10894
10895
10896
10897
10898
10899
10900
10901
10902
10903
10904
10905
10906
10908
10909
10910
10911
10912
10913
10914
10915
10916
10919
10920
10921
10922
10923
10981
10982
10983
10984
10985
10986
10987
10988
10989
10990
10991
10992
10993
10994
10995
10996
10997
10998
10999
11000
11001
11002
11003
11004
11005
11006
11007
11008
11009
11010
11011
11012
11013
11014
11015
11016
11017
11018
11019
11020
11021
11022
11023
11024
11025
11026
11027
11028
11029
11030
11043
11044
11045
11046
11059
11060
11061
11062
11063
11064
11065
11066
11067
11068
11069
11070
11071
11072
11073
11074
11075
11076
11077
11078
11079
11080
11081
11082
11119
11122
11126
11127
11130
11131
11132
11133
11134
11135
11136
11137
11138
11159
11162
11163
11164
11165
11166
11167
11168
11169
11170
11171
11172
11173
11174
11175
11176
11177
11178
11179
11180
11181
11182
11183
11184
11185
11186
11188
11189
11190
11191
11192
11193
11194
11195
11196
11197
11198
11199
11200
11201
11208
11209
11210
11212
11213
11214
11215
11216
11217
11218
11219
11220
11221
11222
11223
11245
11246
11248
11249
11250
11251
11264
11265
11266
11267
11268
11269
11270
11271
11272
11273
11274
11275
11292
11293
11294
11295
11296
11297
11298
11299
11300
11301
11302
11303
11304
11312
11315
11316
11317
11318
11319
11320
11321
11322
11324
11325
11326
11330
11331
11333
11334
11336
11337
11338
11340
11341
11345
11346
11347
11348
11349
11350
11351
11352
11353
11354
11355
11356
11357
11358
11359
11361
11362
11363
11365
11370
11371
11372
11373
11378
11379
11380
11381
11382
11383
11384
11385
11386
11387
11388
11389
11390
11391
11408
11409
11419
11420
11428
11429
11430
11431
11432
11433
11434
11435
11436
11437
11454
11455
11456
11457
11459
11461
11469
11471
11474
11476
11479
11480
11481
11482
11502
11503
11504
11505
11506
11507
11508
11509
11510
11511
11512
11519
11521
11523
11525
11527
11529
11532
11534
11536
11538
11539
11556
11557
11558
11559
11560
11561
11562
11563
11564
11565
11566
11568
11571
11574
11577
11578
11579
11583
11584
11585
11589
11590
11594
11595
11596
11601
11606
11607
11608
11609
11610
11611
11632
11635
11640
11645
11647
11648
11649
11650
11651
11652
11656
11657
11658
11660
11661
11664
11668
11672
11676
11680
11684
11688
11712
11713
11723
11724
11732
11733
11734
11735
11760
11761
11762
11763
11764
11765
11780
11781
11782
11783
11784
11785
11786
11787
11788
11789
11790
11791
11797
11798
11799
11800
11801
11802
11812
11813
11814
11815
11816
11817
11823
11824
11825
11826
11827
11828
11849
11850
11851
11852
11853
11854
11855
11856
11857
11858
11859
11860
11905
11906
11907
11908
11909
11910
11911
11912
11913
11914
11915
11916
11918
11919
11920
11921
11922
11923
11926
11927
11928
11929
11930
11931
11940
11941
11942
11943
11944
11945
11946
11947
12098
12133
12136
12139
12142
12145
12148
12151
12169
12182
12188
12189
12226
12227
12228
12229
12230
12231
12239
12240
12241
12242
12255
12256
12257
12286
12287
12288
12309
12310
12311
12312
12313
12314
12343
12344
12345
12346
12347
12348
12351
12352
12353
12355
12356
12357
12362
12363
12364
12365
)


2214
(
2
3
4
5
6
7
8
9
10
11
12
13
14
15
16
17
18
19
20
21
22
23
24
25
26
27
28
29
30
31
32
33
34
35
36
37
38
39
40
41
42
43
44
45
46
47
48
49
50
51
52
53
54
55
56
57
58
59
60
61
62
63
64
65
66
67
68
69
70
71
72
73
74
75
76
77
78
79
80
81
82
83
84
85
86
87
88
89
90
91
92
93
94
95
96
97
98
99
100
101
102
103
104
105
106
107
110
120
134
135
136
165
166
173
176
178
194
195
196
228
229
231
232
290
291
296
298
299
301
302
303
304
330
332
333
334
335
336
337
338
342
343
344
345
346
347
348
349
350
351
352
356
360
364
368
372
376
380
384
388
392
396
397
398
399
400
401
402
403
404
405
406
407
408
409
410
411
412
413
414
415
416
417
418
419
420
421
422
423
424
425
426
427
428
429
431
432
441
442
443
444
445
446
447
448
449
450
455
456
457
458
459
460
461
462
463
464
465
466
467
478
479
480
481
482
483
513
514
515
516
517
518
519
520
521
540
541
542
543
567
568
569
570
577
578
579
580
633
634
635
636
637
638
639
640
641
642
643
644
645
646
647
648
649
650
651
652
653
654
655
656
657
658
659
660
661
662
663
664
665
666
667
668
669
670
671
672
673
674
675
676
677
678
679
680
681
682
683
684
685
686
687
696
716
721
722
724
725
727
739
740
741
742
743
744
745
746
747
749
750
751
752
753
754
755
756
757
759
761
763
765
767
769
771
773
775
777
779
780
781
782
783
784
785
786
787
788
789
790
791
792
793
794
795
796
797
798
799
800
801
802
807
808
809
810
811
814
815
816
817
818
819
820
821
822
823
824
825
826
827
828
829
830
831
832
833
834
835
836
837
838
839
840
846
847
848
849
850
851
852
853
854
855
856
857
880
881
882
895
896
897
898
899
900
901
902
903
904
905
906
907
911
912
913
914
915
916
917
918
919
920
921
922
923
924
951
952
953
954
955
956
957
958
959
960
961
962
963
964
965
966
967
968
969
970
971
974
976
977
979
980
981
982
984
985
986
987
988
989
990
991
992
997
998
1001
1002
1003
1004
1005
1006
1007
1008
1009
1010
1011
1019
1020
1021
1022
1023
1024
1025
1028
1029
1037
1038
1039
1041
1057
1058
1059
1060
1061
1064
1065
1066
1067
1068
1069
1070
1071
1072
1073
1074
1075
1076
1077
1078
1079
1080
1087
1088
1089
1090
1091
1093
1094
1095
1096
1097
1098
1099
1100
1101
1102
1103
1104
1105
1106
1107
1108
1109
1168
1169
1170
1172
1189
1190
1191
1192
1193
1194
1195
1197
1199
1200
1201
1202
1203
1204
1205
1206
1213
1215
1216
1217
1218
1219
1221
1222
1223
1224
1225
1226
1227
1228
1229
1230
1231
1232
1233
1234
1235
1236
1237
1247
1248
1249
1250
1251
1252
1253
1254
1255
1256
1258
1266
1267
1280
1281
1282
1283
1284
1285
1286
1287
1288
1289
1292
1293
1294
1302
1303
1304
1305
1306
1307
1308
1309
1310
1311
1312
1313
1314
1315
1316
1317
1319
1320
1322
1323
1324
1325
1331
1332
1333
1334
1344
1345
1346
1347
1348
1349
1350
1351
1352
1353
1354
1355
1356
1361
1374
1375
1376
1377
1378
1379
1380
1381
1382
1383
1384
1385
1386
1387
1388
1389
1390
1391
1392
1393
1394
1395
1396
1397
1398
1399
1400
1401
1402
1403
1404
1405
1406
1407
1408
1413
1415
1416
1417
1418
1419
1421
1422
1423
1424
1429
1430
1431
1432
1436
1437
1438
1439
1440
1441
1447
1448
1449
1450
1451
1452
1453
1454
1455
1456
1457
1458
1459
1460
1461
1462
1463
1464
1465
1466
1467
1471
1472
1473
1474
1478
1479
1484
1485
1486
1487
1490
1491
1492
1493
1494
1495
1496
1497
1498
1499
1500
1501
1502
1503
1504
1505
1506
1507
1508
1509
1510
1511
1512
1513
1514
1515
1520
1521
1522
1523
1527
1529
1531
1533
1535
1536
1539
1548
1549
1550
1551
1552
1553
1554
1555
1556
1557
1559
1563
1564
1565
1567
1568
1569
1571
1598
1599
1602
1603
1606
1607
1638
1639
1640
1641
1642
1643
1644
1645
1646
1647
1648
1649
1650
1651
1652
1653
1654
1689
1690
1691
1692
1693
1730
1731
1732
1733
1758
1759
1760
1761
1786
1789
1790
1791
1792
1793
1804
1805
1806
1807
1808
1810
1811
1812
1813
1814
1815
1816
1817
1818
1819
1820
1831
1832
1833
1834
1835
1836
1837
1850
1851
1852
1853
1854
1855
1856
1857
1888
1889
1906
1907
1922
1923
1924
1925
1926
1927
1928
1929
1930
1931
1972
1973
1974
1975
1976
1977
1978
1979
1996
1997
1998
1999
2000
2001
2002
2003
2004
2005
2006
2007
2008
2009
2010
2011
2012
2013
2014
2015
2016
2018
2021
2028
2029
2030
2031
2036
2039
2040
2041
2044
2046
2047
2048
2049
2050
2051
2052
2053
2059
2060
2063
2065
2069
2070
2073
2079
2080
2083
2087
2088
2212
2221
2228
2229
2230
2231
2232
2233
2234
2235
2236
2237
2238
2240
2241
2242
2243
2244
2245
2246
2247
2248
2249
2250
2251
2252
2253
2254
2255
2256
2257
2258
2259
2260
2261
2262
2263
2264
2265
2267
2268
2269
2270
2271
2272
2273
2274
2275
2276
2277
2278
2279
2280
2281
2282
2283
2284
2285
2286
2287
2288
2289
2290
2291
2292
2293
2294
2295
2296
2297
2298
2299
2300
2301
2302
2303
2304
2305
2306
2307
2308
2309
2310
2311
2312
2313
2314
2315
2320
2321
2322
2323
2324
2325
2326
2327
2328
2329
2330
2331
2332
2333
2334
2335
2336
2337
2338
2339
2340
2343
2345
2346
2347
2348
2349
2350
2351
2359
2361
2363
2365
2367
2369
2370
2371
2375
2377
2378
2379
2380
2389
2390
2391
2392
2393
2394
2395
2396
2397
2398
2399
2400
2407
2409
2411
2413
2415
2417
2419
2421
2423
2425
2427
2428
2429
2430
2431
2432
2433
2434
2435
2442
2444
2446
2448
2449
2452
2453
2454
2455
2456
2457
2458
2459
2460
2461
2462
2463
2464
2465
2466
2467
2468
2469
2470
2471
2472
2473
2474
2478
2479
2480
2484
2485
2486
2490
2491
2492
2496
2497
2498
2499
2500
2501
2502
2503
2504
2511
2512
2513
2517
2518
2519
2520
2521
2522
2537
2538
2539
2540
2541
2542
2543
2544
2545
2546
2550
2551
2552
2553
2554
2556
2560
2564
2568
2572
2576
2580
2584
2588
2592
2596
2600
2601
2610
2611
2616
2617
2618
2619
2628
2629
2630
2631
2632
2633
2634
2644
2645
2646
2647
2648
2649
2650
2651
2652
2653
2654
2655
2656
2657
2658
2659
2660
2661
2662
2663
2664
2665
2666
2667
2668
2669
2670
2671
2672
2687
2688
2689
2690
2691
2692
2693
2694
2695
2696
2703
2704
2705
2706
2707
2708
2709
2710
2711
2712
2713
2714
2715
2716
2717
2718
2719
2720
2721
2722
2745
2746
2747
2748
2749
2750
2751
2752
2753
2754
2755
2756
2784
2785
2786
2787
2788
2789
2790
2791
2792
2793
2794
2795
2796
2797
2798
2799
2800
2801
2802
2803
2806
2807
2808
2809
2810
2811
2812
2813
2814
2815
2816
2817
2818
2819
2820
2821
2822
2823
2824
2825
2826
2827
2836
2837
2838
2839
2840
2841
2852
2853
2854
2855
2856
2857
2858
2859
2873
2874
2877
2880
2883
2886
2889
2892
2895
2898
2901
2904
2910
2915
2918
2919
2928
2929
2930
2931
2932
2933
2934
2935
2936
2937
2938
2939
2940
2947
2948
2949
2950
2951
2954
2955
2956
2957
2958
2959
2960
2961
2962
2963
2975
2976
2977
2978
2979
2980
2991
2992
2993
2994
2995
2996
2997
2998
2999
3000
3002
3003
3004
3005
3006
3007
3008
3009
3010
3011
3012
3017
3018
3019
3025
3026
3027
3028
3031
3033
3036
3048
3081
3395
3397
3402
3403
3415
3416
3445
3447
3448
3449
3450
4028
4515
4516
6190
6191
6192
6193
6194
6195
6196
6197
6198
6199
6200
6201
6202
6204
6205
6275
6277
6280
6288
6290
6292
6305
6333
6334
6335
6340
6342
6343
6344
6345
6347
6349
6351
6361
6363
6365
6367
6369
6371
6384
6386
6414
6417
6418
6419
6420
6424
6425
6426
6432
6433
6434
6435
6451
6452
6453
6456
6457
6458
6462
6463
6464
6485
6501
6515
6546
6550
6554
6558
6562
6566
6570
6574
6578
6582
6589
6590
6619
6620
6621
6622
6623
6624
6625
6626
6633
6634
6635
6636
6637
6638
6639
6640
6641
6642
6643
6644
6669
6673
6674
6701
6702
6703
6704
6705
6706
6767
6801
6802
6803
6804
6805
6806
6812
6813
6814
6815
6816
6831
6832
6833
6834
6835
6836
6837
6838
6839
6840
6841
6842
6843
6844
6864
6890
6891
6892
6905
6906
6907
6908
6909
6910
6911
6912
6913
6968
6970
6971
6972
6973
6974
6975
6984
6987
6990
6993
6996
6999
7002
7005
7008
7011
7013
7015
7016
7018
7019
7020
7021
7022
7052
7053
7055
7056
7057
7058
7059
7060
7061
7062
7063
7064
7065
7066
7095
7096
7097
7098
7099
7100
7101
7159
7164
7165
7172
7176
7207
7216
7217
7218
7222
7223
7231
7232
7233
7234
7235
7236
7237
7300
7804
7805
7806
7808
7809
7811
7814
7816
7818
7822
7823
7824
7825
7827
7846
7850
7854
7855
7856
7857
7858
7938
7940
7944
7962
7964
7970
8040
8043
8047
8051
8055
8059
8063
8090
8091
8092
8093
8097
8113
8114
8115
8116
8121
8122
8204
8207
8209
8212
8215
8218
8221
8224
8237
8238
8248
8249
8252
9243
9245
9247
10189
10751
10752
10754
10758
10759
10762
10763
10764
10765
10769
10770
10776
10777
10782
10783
10785
10786
10793
10796
10802
10803
10804
10805
10806
10807
10818
10819
10820
10821
10822
10823
10824
10825
10826
10827
10828
10829
10862
10864
10865
10867
10868
10869
10870
10871
10872
10873
10874
10875
10876
10877
10878
10879
10881
10882
10885
10886
10887
10889
10890
10891
10892
10893
10894
10895
10896
10897
10898
10899
10900
10901
10902
10903
10904
10905
10906
10908
10909
10910
10911
10912
10913
10914
10915
10916
10919
10920
10921
10922
10923
10981
10982
10983
10984
10989
10990
10991
10992
10993
10994
10995
10996
10997
10998
10999
11000
11001
11002
11003
11004
11005
11006
11007
11008
11009
11010
11011
11012
11013
11014
11015
11016
11017
11018
11019
11021
11022
11023
11024
11025
11026
11027
11028
11029
11030
11043
11044
11059
11060
11061
11062
11063
11064
11065
11066
11067
11068
11069
11070
11071
11072
11073
11074
11075
11076
11077
11078
11079
11080
11081
11082
11131
11133
11134
11135
11136
11137
11138
11167
11168
11169
11170
11171
11172
11173
11174
11175
11176
11177
11178
11180
11181
11188
11189
11190
11191
11192
11193
11194
11195
11196
11197
11198
11199
11200
11201
11212
11213
11214
11215
11216
11217
11218
11221
11222
11223
11264
11265
11268
11269
11292
11293
11294
11295
11296
11297
11298
11299
11300
11301
11302
11303
11312
11315
11316
11317
11318
11319
11320
11321
11322
11324
11325
11326
11330
11331
11333
11334
11336
11337
11338
11340
11341
11345
11346
11347
11348
11349
11350
11351
11352
11353
11354
11355
11356
11357
11358
11359
11361
11362
11363
11365
11370
11371
11372
11373
11378
11379
11380
11381
11382
11383
11384
11385
11386
11387
11388
11389
11390
11391
11408
11409
11419
11420
11428
11429
11430
11431
11432
11433
11434
11435
11436
11437
11454
11455
11456
11457
11459
11461
11469
11471
11474
11476
11479
11480
11481
11482
11502
11503
11504
11505
11506
11507
11508
11509
11510
11511
11512
11519
11521
11523
11525
11527
11529
11532
11534
11536
11538
11539
11556
11557
11558
11559
11560
11561
11562
11563
11564
11565
11566
11568
11571
11574
11577
11578
11579
11583
11584
11585
11589
11590
11594
11595
11596
11601
11606
11607
11608
11609
11610
11611
11632
11635
11640
11645
11647
11648
11649
11650
11651
11652
11656
11657
11658
11660
11661
11664
11668
11672
11676
11680
11684
11688
11712
11713
11723
11724
11732
11733
11734
11735
11760
11761
11762
11763
11764
11765
11780
11781
11782
11783
11784
11785
11786
11787
11788
11789
11790
11791
11797
11798
11799
11800
11801
11802
11812
11813
11814
11815
11816
11817
11823
11824
11825
11826
11827
11828
11849
11850
11851
11852
11853
11854
11855
11856
11857
11858
11859
11860
11905
11906
11907
11908
11909
11910
11911
11912
11913
11914
11915
11916
11918
11919
11920
11921
11922
11923
11926
11927
11928
11929
11930
11931
11940
11941
11942
11943
11944
11945
11946
11947
12098
12133
12136
12139
12142
12145
12148
12151
12169
12182
12188
12189
12226
12227
12228
12229
12230
12231
12239
12240
12241
12242
12255
12256
12257
12286
12287
12288
12309
12310
12311
12312
12313
12314
12343
12344
12345
12346
12347
12348
12351
12352
12353
12355
12356
12357
12362
12363
12364
12365
)


2768
(
0
1
2
3
4
5
6
7
8
9
10
11
12
13
14
15
16
17
18
19
20
21
22
23
24
25
26
27
28
29
30
31
32
33
34
35
36
37
38
39
40
41
42
43
44
45
46
47
48
49
50
51
52
53
54
55
56
57
58
59
60
61
62
63
64
65
66
67
68
69
70
71
72
73
74
75
76
77
78
79
80
81
82
83
84
85
86
87
88
89
90
91
92
93
94
95
96
97
98
99
100
101
102
103
104
105
106
107
110
120
134
135
136
165
166
178
194
195
196
229
301
303
330
332
333
334
335
337
338
342
343
344
345
346
347
348
349
350
351
352
356
360
364
368
372
376
380
384
388
392
396
397
398
399
400
401
402
403
404
405
406
407
408
409
410
411
412
413
414
415
416
417
418
419
420
421
422
423
424
425
426
427
428
429
431
432
441
442
443
444
445
446
447
448
449
450
455
456
457
458
459
460
461
462
463
464
465
466
467
478
479
480
481
482
483
513
514
515
516
517
518
519
520
521
567
568
569
570
577
578
579
580
633
634
635
636
637
638
639
640
641
642
643
644
645
646
647
648
649
650
651
652
653
654
655
656
657
658
659
660
661
662
663
664
665
666
667
668
669
670
671
672
673
674
675
676
677
678
679
680
681
682
683
684
685
686
687
739
740
741
742
743
744
747
749
750
751
752
753
754
755
756
757
759
761
763
765
767
769
771
773
775
777
779
780
781
782
783
784
785
786
787
788
789
790
791
792
793
794
795
796
797
798
799
800
801
802
807
808
809
810
811
814
815
816
817
818
819
820
821
822
823
824
825
826
827
828
829
830
831
832
833
834
835
836
837
838
839
840
846
847
848
849
850
851
852
853
854
855
856
857
895
896
897
898
899
900
901
902
903
904
905
906
907
911
912
913
914
915
916
917
918
919
920
921
922
923
924
951
952
953
954
955
956
957
958
959
960
961
962
963
964
965
966
967
968
969
970
971
972
973
974
976
977
979
980
981
982
984
985
986
987
988
989
990
1001
1002
1003
1004
1005
1007
1009
1020
1021
1022
1028
1029
1037
1038
1057
1059
1066
1067
1068
1069
1070
1071
1072
1073
1074
1075
1076
1077
1078
1079
1080
1087
1088
1089
1093
1094
1095
1096
1097
1098
1099
1100
1101
1102
1103
1104
1105
1106
1107
1108
1109
1189
1190
1191
1192
1193
1194
1195
1197
1199
1200
1201
1202
1203
1204
1205
1206
1213
1215
1216
1217
1221
1222
1223
1224
1225
1226
1227
1228
1229
1230
1231
1232
1233
1234
1235
1236
1237
1247
1248
1249
1250
1251
1252
1253
1255
1258
1266
1267
1280
1281
1282
1283
1284
1286
1287
1293
1302
1303
1304
1305
1306
1307
1308
1309
1310
1311
1312
1313
1314
1315
1322
1323
1331
1332
1333
1344
1345
1346
1347
1348
1349
1350
1351
1352
1353
1354
1355
1356
1361
1374
1377
1379
1381
1383
1385
1387
1388
1389
1390
1391
1392
1393
1394
1395
1396
1397
1398
1399
1400
1401
1402
1403
1404
1405
1406
1407
1408
1415
1416
1417
1418
1419
1421
1422
1423
1424
1429
1430
1431
1432
1436
1447
1448
1449
1450
1451
1452
1453
1460
1461
1462
1463
1464
1465
1466
1467
1471
1472
1473
1474
1478
1479
1484
1485
1486
1487
1490
1491
1492
1493
1494
1495
1496
1497
1498
1499
1500
1501
1502
1503
1504
1505
1506
1507
1508
1509
1510
1511
1512
1513
1514
1515
1520
1521
1522
1523
1527
1529
1531
1533
1535
1536
1539
1548
1549
1550
1551
1552
1553
1554
1555
1556
1557
1559
1563
1564
1565
1598
1599
1602
1603
1606
1607
1638
1639
1640
1641
1642
1643
1644
1645
1646
1647
1648
1649
1650
1651
1652
1653
1654
1689
1690
1691
1692
1693
1730
1731
1786
1789
1790
1792
1793
1804
1805
1806
1807
1808
1810
1811
1812
1813
1814
1815
1816
1817
1818
1819
1820
1831
1832
1833
1834
1835
1836
1837
1850
1851
1852
1853
1854
1855
1856
1857
1888
1889
1922
1923
1924
1925
1926
1927
1928
1929
1930
1931
1972
1973
1974
1975
1996
1997
1998
1999
2000
2001
2002
2003
2004
2005
2006
2007
2008
2009
2010
2011
2012
2013
2015
2016
2018
2019
2021
2022
2026
2028
2029
2030
2031
2032
2036
2039
2040
2041
2042
2043
2044
2045
2046
2047
2048
2049
2050
2051
2052
2053
2055
2056
2057
2058
2059
2060
2061
2062
2063
2064
2065
2066
2067
2068
2069
2070
2071
2072
2073
2077
2078
2079
2080
2081
2083
2084
2085
2086
2087
2088
2094
2096
2097
2098
2099
2100
2101
2114
2115
2123
2124
2125
2128
2141
2142
2143
2144
2145
2147
2160
2165
2166
2167
2168
2169
2170
2171
2172
2173
2174
2175
2176
2177
2178
2179
2180
2181
2182
2183
2184
2185
2186
2192
2193
2194
2209
2211
2212
2214
2217
2218
2219
2220
2221
2226
2227
2230
2231
2232
2233
2234
2235
2236
2237
2238
2239
2240
2241
2242
2243
2244
2245
2246
2247
2248
2249
2250
2251
2252
2253
2254
2255
2256
2257
2258
2259
2260
2261
2262
2263
2264
2265
2266
2267
2268
2269
2270
2271
2272
2273
2274
2275
2276
2277
2278
2279
2280
2281
2282
2283
2284
2285
2286
2287
2288
2289
2290
2291
2292
2293
2294
2295
2296
2297
2298
2299
2300
2301
2302
2303
2304
2305
2306
2307
2308
2309
2310
2311
2312
2313
2314
2315
2320
2321
2322
2323
2324
2325
2326
2327
2328
2329
2330
2331
2332
2333
2334
2335
2336
2337
2338
2339
2340
2343
2345
2346
2347
2348
2349
2350
2351
2359
2361
2363
2365
2367
2369
2370
2371
2375
2377
2378
2379
2380
2389
2390
2391
2392
2393
2394
2395
2396
2397
2398
2399
2400
2407
2409
2411
2413
2415
2417
2419
2421
2423
2425
2427
2428
2429
2430
2431
2432
2433
2434
2435
2442
2444
2446
2448
2449
2452
2453
2454
2455
2456
2457
2458
2459
2460
2461
2462
2463
2464
2465
2466
2467
2468
2469
2470
2471
2472
2473
2474
2478
2479
2480
2484
2485
2486
2490
2491
2492
2496
2497
2498
2499
2500
2501
2502
2503
2504
2511
2512
2513
2517
2518
2519
2520
2521
2522
2537
2538
2539
2540
2541
2542
2543
2544
2545
2546
2550
2551
2552
2553
2554
2556
2560
2564
2568
2572
2576
2580
2584