/*--------------------------------*- C++ -*----------------------------------*\
  =========                 |
  \\      /  F ield         | OpenFOAM: The Open Source CFD Toolbox
   \\    /   O peration     | Website:  https://openfoam.org
    \\  /    A nd           | Version:  8
     \\/     M anipulation  |
\*---------------------------------------------------------------------------*/
/*   Windows 32 and 64 bit porting by blueCAPE: http://www.bluecape.com.pt   *\
|  Based on Windows porting (2.0.x v4) by Symscape: http://www.symscape.com   |
\*---------------------------------------------------------------------------*/
FoamFile
{
    version     2.0;
    format      ascii;
    class       scalarListList;
    location    "constant/vegetation";
    object      kcLAIboundary;
}
// * * * * * * * * * * * * * * * * * * * * * * * * * * * * * * * * * * * * * //


5
(

808
(
0
0
0
0
0
1000
0
0
0
0.92193661
0
1000
0
0.22460076
0
0
0
1000
0.0084178177
0.2093726
0
3.3884262
1000
0
1000
0
2.2034049
2.9516897
2.3846842
0
3.2524261
3.4369905
3.4672315
3.2758107
3.3226697
2.3974417
0.036042361
3.4282099
3.4747028
1000
0.055224777
0
0
0
0
0
1000
1000
0
0
1000
1000
1000
0
0
1000
1000
0
0
0
1000
1000
0
1000
0
0
1000
1000
1000
1000
1000
1000
0
1000
1000
1000
0
0
0
0
0
0
0
1000
1000
1000
1000
1000
1000
1000
0.027481527
0.022217145
0.021947386
0.02814033
0
0
1000
1000
0
1000
1000
1000
1000
1000
1000
1000
0
0
0
0
0
1000
1000
1000
1000
0.030929735
0.033963057
1000
0.028183268
0
0
0
1000
1000
0
0
0
0
0
0
0
0
0
0
0
0
0
0
0
1000
0
0
0
1000
1000
1000
0
0
0
1000
0
0
0
0
0
0
0
0
0
0
0
0
0
0
0
0
0
1000
1000
0
1000
0
0
0
0
0
0
0
0
0
0
0
0
0
0
0
0
0
0
0
0
0
0
0
0
1000
0
1000
0
1000
0
1000
1000
1000
1000
1000
1000
1000
1000
1000
0
0
0
0
0
0
1000
0
1000
0
1000
0
1000
1000
0
0
0
1000
0
1000
0
0
0
1000
0
1000
1000
1000
1000
0
0
0
0
0
0
0
0
0
0
0
0
0
0
0
0
0
0
0
1000
1000
1000
0
0
0
0
1000
1000
0
0
0
1000
1000
1000
1000
1000
1000
1000
1000
1000
0
0
0
0
0
0
1000
1000
1000
0
0
0
0
0
0
0
0
0
0
0
0
0
0
0
0
0
0
0
0
0
0
0
0
0
0
0
0
0
0
0
0
0
0
0
0
0
0
0
0
0
0
0
0
0
0
0
0
0
0
0
0
0
0
0
0
0
0
0
0
0
0
1000
0
0
0
1000
0
0
0
1000
0
0
0
1000
0
0
0
1000
0
0
0
1000
0
0
0
0
0
0
0
0
0
0
0
0
0
0
0
0
0
0
0
0
0
0
0
0
0
0
0
0
0
0
0
1000
1000
1000
1000
0
0
0
0
0
0
0
0
0
0
0
0
0
0
0
0
0
0
0
0
0
1000
1000
1000
1000
1000
1000
1000
1000
1000
1000
1000
1000
1000
1000
1000
1000
1000
1000
1000
1000
0
0
0
0
0
0
0
0
0
0
0
0
0
0
1000
1000
1000
1000
1000
1000
1000
1000
1000
1000
0
0
0
0
0
0
1000
0
1000
1000
1000
0
1000
1000
0
0
0
0
0
0
0
0
0
0
0
0
0
0
0
0
0
0
0
0
0
0
0
0
0
0
0
0
0
0
0
0
0
0
0
0
0
0
0
0
0
0
0
0
0
0
0
0
0
0
0
0
0
0
0
0
0
0
0
0
0
0
0
0
0
0
0
0
0
0
0
0
0
1000
0
1000
1000
1000
1000
1000
1000
0
0
0
0
0
0
0
0
0
0
0
0
0
0
1000
1000
1000
1000
0
0
0
1000
1000
1000
1000
1000
1000
1000
1000
1000
1000
1000
1000
1000
1000
1000
0
0
0
0
0
0
0
0
1000
1000
1000
1000
1000
1000
0
0
0
0
0
0
0
0
0
0
0
0
0
0
0
0
0
0
0
0
0
0
0
0
0
0
0
0
0
0
0
0
0
0
0
0
0
0
0
0
0
0
0
0
0
0
0
0
0
0
1000
0
0
1000
0
0
1000
0
0
1000
0
0
1000
0
0
0
0
0
0
0
0
0
0
0
0
0
0
0
0
0
0
0
0
0
0
0
0
0
0
0
0
1000
1000
1000
1000
1000
1000
1000
1000
0
0
0
0
0
0
1000
1000
1000
1000
1000
0
0
1000
1000
1000
1000
0
0
0
0
0
0
0
0
0
0
0
0
0
0
0
0
0
0
0
0
0
0
0
0
0
0
0
0
0
0
0
0
0
1000
1000
1000
1000
0
0
0
0
0
0
0
1000
1000
0
0
1000
1000
1000
1000
1000
1000
1000
0
0
0
0
1000
1000
1000
0
0
0
0
0
0
0
0
0
0
0
0.86887622
3.2618332
1.1451401
)


808
(
0
0
0
0
0
0.0011234274
0
0
0
0.48393829
1000
1000
1000
2.4149891
0
0
0
0
0.33585034
2.1851126
0
3.3309471
1000
1000
0.68391415
0
2.7967082
2.470194
3.1967918
1000
3.3464069
2.9395731
3.1321277
2.4784977
2.5421838
1.4161074
0
3.0303884
3.0156952
1000
1.9765858
0
0
0
0
0
1000
1000
1000
1000
1000
1000
1000
1000
1000
1000
1000
1000
1000
1000
1000
1000
1000
1000
1000
1000
1000
1000
1000
1000
1000
1000
1000
1000
1000
1000
1000
1000
1000
1000
1000
1000
1000
1000
1000
1000
1000
1000
1000
1000
1.0072193
1.0716667
0.86447187
1.2248198
1000
1000
1000
1000
1000
1000
1000
1000
1000
1000
1000
1000
1000
1000
1000
1000
1000
1000
1000
1000
1000
1.2026942
1.3788968
1000
1.0432871
0
0
0
1000
1000
1000
0
0
0
0
0
0
0
0
0
0
0
0
1000
0
1000
0
1000
0
1000
1000
1000
0
0
0
1000
0
1000
0
0
1000
0
0
0
0
0
0
0
0
0
0
0
0
1000
1000
1000
1000
1000
1000
1000
1000
0
0
0
0
0
0
0
0
0
0
0
0
0
0
0
0
0
0
1000
0
1000
0
1000
0
1000
0
1000
1000
1000
1000
1000
1000
1000
1000
1000
0
0
0
0
0
0
1000
0
1000
0
1000
0
1000
1000
0
0
1000
1000
1000
1000
0
0
0
1000
1000
1000
1000
1000
1000
1000
1000
1000
1000
1000
1000
0
0
0
0
0
0
0
1000
0
0
0
0
0
1000
1000
1000
0
0
0
1000
1000
1000
0
0
0
1000
1000
1000
1000
1000
1000
1000
1000
1000
0
0
0
0
0
0
1000
1000
1000
0
0
0
0
0
0
1000
0
0
0
0
0
0
0
0
0
0
0
0
0
0
0
0
0
0
0
0
1000
1000
1000
0
1000
1000
0
0
0
1000
0
0
0
0
0
0
0
0
0
0
0
0
0
0
0
0
0
0
0
0
0
0
0
0
0
1000
0
0
0
1000
0
0
0
1000
0
0
0
1000
0
0
0
1000
0
0
0
1000
0
0
0
0
0
0
0
0
0
0
0
0
0
0
0
0
0
0
0
0
0
0
0
0
0
0
0
0
0
0
0
1000
1000
1000
1000
1000
1000
1000
0
0
0
0
0
0
0
0
0
0
0
0
0
0
0
1000
1000
1000
1000
1000
1000
1000
1000
1000
1000
1000
1000
1000
1000
1000
1000
1000
1000
1000
1000
1000
1000
1000
0
0
0
0
0
0
0
0
0
0
0
0
0
0
1000
1000
1000
1000
1000
1000
1000
1000
1000
1000
0
0
0
0
0
0
1000
1000
1000
1000
1000
1000
1000
1000
1000
1000
0
1000
1000
1000
0
0
0
0
0
0
0
0
0
0
0
0
0
0
0
0
0
0
0
0
0
0
0
0
0
0
0
0
0
0
0
0
0
0
1000
1000
0
0
1000
0
0
0
0
0
0
0
0
0
0
0
0
0
0
0
0
0
0
0
0
0
0
0
0
0
0
0
0
1000
1000
1000
1000
1000
1000
1000
1000
1000
1000
1000
1000
1000
1000
0
1000
0
0
0
0
0
0
1000
1000
1000
1000
1000
1000
1000
1000
1000
1000
1000
1000
1000
1000
1000
1000
1000
1000
1000
1000
1000
1000
0
0
0
0
0
0
0
0
1000
1000
1000
1000
1000
1000
0
0
0
0
0
0
0
0
0
0
1000
1000
1000
1000
0
0
0
1000
0
0
0
0
0
0
0
0
0
0
0
0
0
0
0
0
0
0
0
0
0
0
0
0
0
0
1000
0
0
1000
0
0
1000
0
0
1000
0
0
1000
0
0
1000
0
0
1000
0
0
0
0
0
1000
0
0
0
0
0
0
0
0
0
0
0
0
0
0
0
0
0
0
0
0
1000
1000
1000
1000
1000
1000
1000
1000
1000
1000
0
0
0
0
0
0
1000
1000
1000
1000
1000
0
0
1000
1000
1000
1000
1000
1000
1000
0
0
0
0
0
0
0
0
0
0
0
0
0
0
0
0
0
0
0
0
0
0
0
0
0
0
0
0
0
0
1000
1000
1000
1000
1000
1000
1000
0
0
0
0
1000
1000
1000
1000
1000
1000
1000
1000
1000
1000
1000
0
0
0
0
1000
1000
1000
0
0
0
0
0
1000
1000
1000
1000
0
0
1.0153521
2.9513202
1.1962808
)


808
(
0
0
0
0
0
0.025769553
0
0
0
0.01127852
1000
1000
1000
2.9949259
0
0
0
0
0.7920273
2.5564608
0
2.7145562
1000
1000
2.3528057
0
2.1500247
1.3576677
3.2330533
1000
2.9515681
1.802458
2.4586915
1.8495581
1.2872147
0.45892077
0
1.7636167
1.9564764
0.31394332
2.9390813
0
0
0
0
0
1000
1000
1000
1000
1000
1000
1000
1000
1000
1000
1000
1000
1000
1000
1000
1000
1000
1000
1000
1000
1000
1000
1000
1000
1000
1000
1000
1000
1000
1000
1000
1000
1000
1000
1000
1000
1000
1000
1000
1000
1000
1000
1000
1000
2.5355138
2.7558862
2.434783
2.7984529
1000
1000
1000
1000
1000
1000
1000
1000
1000
1000
1000
1000
1000
1000
1000
1000
1000
1000
1000
1000
1000
2.7685556
2.8288174
1000
2.572933
0
1000
1000
1000
1000
1000
1000
0
0
0
0
0
0
0
0
0
0
0
1000
0
1000
0
1000
0
1000
1000
1000
0
0
0
1000
0
1000
0
1000
1000
0
0
0
0
0
0
0
0
0
1000
1000
1000
1000
1000
1000
1000
1000
1000
1000
1000
0
0
0
0
0
0
0
0
0
0
1000
0
0
0
0
0
0
0
1000
0
1000
0
1000
0
1000
0
1000
1000
1000
1000
1000
1000
1000
1000
1000
0
0
0
0
0
0
1000
0
1000
0
1000
0
1000
1000
0
0
1000
1000
1000
1000
0
1000
1000
1000
1000
1000
1000
1000
1000
1000
1000
1000
1000
1000
1000
0
0
0
0
0
0
0
1000
1000
0
0
0
0
1000
1000
1000
0
0
0
1000
1000
1000
0
0
0
1000
1000
1000
1000
1000
1000
1000
1000
1000
0
0
0
0
0
0
1000
1000
1000
0
0
0
1000
1000
1000
1000
1000
1000
0
0
0
0
0
0
0
0
0
0
0
0
0
0
0
1000
1000
0
1000
1000
1000
1000
1000
1000
0
0
0
1000
0
0
0
0
0
0
0
0
0
0
0
0
0
0
0
0
0
0
0
0
0
0
0
0
0
1000
0
0
0
1000
0
0
0
1000
0
0
0
1000
0
0
0
1000
0
0
0
1000
0
0
0
1000
1000
0
0
0
0
0
0
0
0
0
0
0
0
0
0
0
0
1000
1000
0
0
0
0
0
0
0
0
1000
1000
1000
1000
1000
1000
1000
0
0
0
0
0
0
0
0
0
0
0
0
0
0
0
1000
1000
1000
1000
1000
1000
1000
1000
1000
1000
1000
1000
1000
1000
1000
1000
1000
1000
1000
1000
1000
1000
1000
0
0
0
0
0
0
0
0
0
0
0
0
0
0
1000
1000
1000
1000
1000
1000
1000
1000
1000
1000
0
0
0
0
0
0
1000
1000
1000
1000
1000
1000
1000
1000
1000
1000
1000
1000
1000
1000
0
0
0
0
0
0
0
0
0
0
0
0
0
0
0
0
0
0
0
0
0
0
0
0
0
0
0
0
0
1000
0
1000
1000
1000
1000
1000
1000
1000
1000
1000
0
0
0
0
0
0
0
0
0
0
0
0
0
0
0
0
0
0
0
0
0
0
0
0
0
0
0
1000
1000
1000
1000
1000
1000
1000
1000
1000
1000
1000
1000
1000
1000
1000
1000
1000
0
0
0
0
0
1000
1000
1000
1000
1000
1000
1000
1000
1000
1000
1000
1000
1000
1000
1000
1000
1000
1000
1000
1000
1000
1000
0
0
0
0
0
0
0
0
1000
1000
1000
1000
1000
1000
0
0
0
0
0
0
0
0
0
0
1000
1000
1000
1000
1000
1000
1000
1000
0
0
0
0
0
0
0
0
0
0
0
0
0
0
0
0
0
0
0
0
0
0
0
0
0
0
1000
0
0
1000
0
0
1000
0
0
1000
0
0
1000
0
0
1000
0
0
1000
0
0
0
0
0
1000
0
0
0
0
0
0
0
0
1000
0
0
0
0
0
0
0
0
0
0
0
1000
1000
1000
1000
1000
1000
1000
1000
1000
1000
0
0
0
0
0
0
1000
1000
1000
1000
1000
0
0
1000
1000
1000
1000
1000
1000
1000
0
0
0
0
0
0
0
0
0
0
0
0
0
0
1000
1000
1000
1000
1000
1000
0
0
0
0
0
0
0
0
0
0
1000
1000
1000
1000
1000
1000
1000
1000
1000
1000
0
1000
1000
1000
1000
1000
1000
1000
1000
1000
1000
1000
0
0
0
0
1000
1000
1000
0
0
0
0
0
1000
1000
1000
1000
0
0
1.0966405
2.270347
1.1553147
)


808
(
0
0
0
0
0
0.25654613
0
0
0
0
0.78984923
2.572827
1000
2.94412
0
0
0
0.017928643
0.044046652
2.1161435
0
3.3326069
1000
1000
2.2817488
0
1.3552759
1.2375191
2.7827063
0.019359264
3.7860734
2.891954
3.8129715
3.5726359
2.3573104
0.77408378
0
2.2585106
3.464799
1.2389448
2.9552722
0
0
0
0
0
1000
1000
1000
1000
1000
1000
1000
1000
1000
1000
1000
1000
1000
1000
1000
1000
1000
1000
1000
1000
1000
1000
1000
1000
1000
1000
1000
1000
1000
1000
1000
1000
1000
1000
1000
1000
1000
1000
1000
1000
1000
1000
1000
1000
2.8512565
2.9448895
2.8306633
2.9402847
1000
1000
1000
1000
1000
1000
1000
1000
1000
1000
1000
1000
1000
1000
1000
1000
1000
1000
1000
1000
1000
2.8238558
2.9249703
1000
2.7843191
1000
1000
1000
1000
1000
1000
1000
0
0
0
0
0
0
0
1000
0
1000
0
1000
0
1000
0
1000
0
1000
1000
1000
0
0
0
1000
0
1000
1000
1000
1000
0
0
0
0
0
0
0
0
1000
1000
1000
1000
1000
1000
1000
1000
1000
1000
1000
1000
0
0
0
0
0
0
0
0
0
0
1000
0
1000
0
0
0
1000
0
1000
0
1000
0
1000
0
1000
0
1000
1000
1000
1000
1000
1000
1000
1000
1000
0
0
0
0
0
0
1000
0
1000
0
1000
0
1000
1000
0
0
1000
1000
1000
1000
1000
1000
1000
1000
1000
1000
1000
1000
1000
1000
1000
1000
1000
1000
1000
1000
1000
1000
1000
0
0
0
1000
1000
1000
0
0
0
1000
1000
1000
0
0
0
1000
1000
1000
0
0
0
1000
1000
1000
1000
1000
1000
1000
1000
1000
0
0
0
0
0
0
1000
1000
1000
0
0
0
1000
1000
1000
1000
1000
1000
0
0
0
0
0
0
0
0
0
0
0
0
0
0
1000
1000
1000
1000
1000
1000
1000
1000
1000
1000
0
0
0
1000
0
0
0
0
0
0
0
0
0
0
0
0
0
0
0
0
0
1000
0
0
0
1000
0
0
0
1000
0
0
0
1000
0
0
0
1000
0
0
0
1000
0
0
0
1000
0
0
0
1000
0
0
0
1000
1000
0
0
0
0
0
0
0
0
1000
1000
0
0
0
0
1000
1000
1000
1000
0
0
0
0
0
0
0
0
1000
1000
1000
1000
1000
1000
1000
0
0
0
0
0
0
0
0
0
1000
1000
1000
1000
1000
1000
1000
1000
1000
1000
1000
1000
1000
1000
1000
1000
1000
1000
1000
1000
1000
1000
1000
1000
1000
1000
1000
1000
1000
0
0
0
0
0
0
0
0
0
0
0
0
0
0
1000
1000
1000
1000
1000
1000
1000
1000
1000
1000
0
0
0
0
0
0
1000
1000
1000
1000
1000
1000
1000
1000
1000
1000
1000
1000
1000
1000
1000
1000
1000
1000
1000
1000
0
0
0
0
0
0
0
0
0
0
0
0
0
0
0
0
0
0
0
0
0
0
1000
1000
1000
1000
1000
1000
1000
1000
1000
1000
1000
1000
0
0
0
0
0
0
0
0
0
0
0
0
0
0
0
0
0
0
0
0
0
0
0
0
0
0
0
1000
1000
1000
1000
1000
1000
1000
1000
1000
1000
1000
1000
1000
1000
1000
1000
1000
1000
1000
1000
0
0
1000
1000
1000
1000
1000
1000
1000
1000
1000
1000
1000
1000
1000
1000
1000
1000
1000
1000
1000
1000
1000
1000
0
0
0
0
0
0
0
0
1000
1000
1000
1000
1000
1000
0
0
0
0
0
0
0
0
0
0
1000
1000
1000
1000
1000
1000
1000
1000
0
0
0
0
0
0
0
0
0
0
0
0
0
0
0
0
0
0
0
0
1000
0
0
1000
0
0
1000
0
0
1000
0
0
1000
0
0
1000
0
0
1000
0
0
1000
0
0
1000
0
0
0
0
0
1000
0
0
0
0
1000
0
0
1000
1000
0
0
0
0
0
0
0
0
1000
1000
0
1000
1000
1000
1000
1000
1000
1000
1000
1000
1000
0
0
0
0
0
0
1000
1000
1000
1000
1000
0
0
1000
1000
1000
1000
1000
1000
1000
1000
1000
1000
0
0
0
0
0
0
0
0
0
0
0
1000
1000
1000
1000
1000
1000
0
0
0
0
0
0
0
0
0
0
1000
1000
1000
1000
1000
1000
1000
1000
1000
1000
0
1000
1000
1000
1000
1000
1000
1000
1000
1000
1000
1000
0
0
0
0
1000
1000
1000
0
0
0
0
0
1000
1000
1000
1000
0
0
1.0205638
2.6724698
0.88560398
)


808
(
0
0
0
0
0
0.0003796686
0
0
0
0
1.1016455
2.2267554
1.1966714
3.6479414
0
0
0
0.00036576669
0.00041698684
0.54970251
0
2.7970035
2.0355372
1.2851251
0.69999868
0
0.24500526
0.60595518
2.3667743
0.15759669
3.4389792
2.2829715
1000
1000
1.7200916
0.42234175
0
1.5930231
2.8284945
0.32650287
3.6274727
0
0
0
0
0
2.518498
2.0801432
1.0350608
1.9612261
2.5553116
2.4131884
2.3797155
1.4526137
1.6033452
2.8251085
2.9654138
0.40036192
0.48194078
1.1365261
2.4029361
2.4825709
1.6478058
2.1987708
1.5072361
1.8420408
2.4396484
2.5932243
2.3902095
2.4474728
2.1206897
2.0750991
1.6021663
2.3171042
2.002901
1.9573173
1.2862047
0.83376114
0.76064125
1.4412793
1.7226546
0.99715423
0.92924488
2.4272671
2.7034979
2.5742064
2.5574666
3.206781
2.6798882
2.616723
3.3010279
3.9686964
3.5704026
3.6722523
0.4612149
0.51735275
2.3553999
1.7664536
1.3370606
2.477478
2.3099384
2.2381767
2.1926396
1.7208474
1.884826
1.8392083
0.69333138
0.59990619
1.270983
1.166533
1.1001145
2.4661983
2.5190993
2.5086208
3.0155626
3.192348
3.478366
2.8257729
3.0321476
0
0.00048842081
0.0042490907
0.47991403
1.4163681
0.30843701
0.0061339604
0
0
0
0
0
0
0
0
0
0
0
0
0
0
0
0
0
1.6923866
0.022570229
1.0217992
0
0
0
0
0
0.022158893
0
0.0023458183
0
0
0
0
0
0
0
0
0
0
0
0.28838954
0.16335274
2.3042996
1.9521208
1.4331816
1.8342968
0.31802749
0.57914398
1.2632331
0.74921686
0
0
0
0
0
0
0
0
0
0
0
0
0
0
0
0
0
0
0
0
0
0
0
0
0
0
2.0190251
2.5076988
2.3917192
2.5178679
2.5703951
1.7680193
0.7793846
0.046255359
0.52826225
0
0
0
0
0
0
0
0
0
0
0
0
0.027330672
0
0
0
0.13573434
0.0055738948
0
0.64991454
0
0
0.0062180056
0.76473461
1.1842628
1.661344
1.0954649
2.1309794
1.7791868
0.048047652
1.0110896
0.48281096
0.014822223
0.20737409
0.39635801
0
0
0
0
0
0
0
0
0
0
0
0
0
0
0
0
0
0
0
0
0
0
0
0
0
1.8949366
2.2466383
2.4593658
0.095965851
0.036097727
0.42987177
1.6451768
0.47007307
0.61841846
0
0
0
0
0
0
0
0.017128947
0
0
0
0
0
0
0
0.010924306
0
0
0
0
0
0
0
0
0
0
0
0
0
0
0
0
0
0
0.02684868
0
0.014436217
0.0073110726
0
0
0
0
0
0
0
0.36658767
0
0
0
0
0
0
0
0
0
0
0
0
0
0
0
0
0
0
0
0
0
0
0
0
0
0
0
0
0
0
0
0
0
0
0
0
0
0
0
0
0
0
0
0
0
0
0
0
0
0.008130974
0.0085700128
0
0
0
0
0
0
0
0
0
0
0
0
0
0
0
0
0
0.0047492196
0
0
0
0
0
0
0
0
2.1869902
2.0696496
1.5978087
1.7162067
0.42767232
1.0922329
0.92065997
0
0
0
0
0
0
0
0
0
0
0
0
0
0
0
0
0
0
0
0
0
0
0
2.1491133
2.2696277
2.4341053
2.5598657
2.4302526
2.4716483
2.6311338
1.8977182
1.4654148
1.1203474
0.95784615
0.057525943
0.13140192
0.63453381
0.3330547
0
0
0
0
0
0
0
0
0
0
0
0
0
0
0
0
0
0
0
0
0.03858092
0.006575785
0
0
0
0
0
0
0
0
0.28785772
0.018367944
0
0.034115398
0
0
0.4505588
0.27816042
0.011496575
0.13169707
0.077348785
0.26357852
0.32788474
0.2724613
0
0
0
0
0
0
0
0
0
0
0
0
0
0
0
0
0
0
0
0
0
0
0
0
0
0
0
0
0
0
0
0
0
0
0.0076399453
0.0052315852
0
0
0
0
0
0
0
0
0
0
0
0
0
0
0
0
0
0
0
0
0
0
0
0
0
0
0
0
0
0
0
1.353263
0.91406106
1.5211036
1.4222207
2.0140406
1.9424956
1.896737
1.5825858
0.10303779
0.20156094
0.83254769
0.74534804
0.65541338
0.34308894
0
0
0
0
0
0
0
0
0
0
0
0
0
0
0
0
2.1420927
1.7699963
2.3607919
2.0480842
2.3828733
2.4152469
0.053168412
0.027396893
0.23474726
0.34663786
1.2964966
1.4931199
0.95156454
0.52890789
0
0
0
0
0
0
0
0
0
0
0
0.009357902
0
0
0
0
0
0
0
0
0
0
0
0
0.017913629
0.0087067671
0.001187184
0
0
0
0
0
0
0
0
0
0
0
0
0
0
0
0
0
0
0
0
0
0
0
0
0
0
0
0
0
0
0
0
0
0
0
0
0
0
0
0
0
0
0
0
0
0
0
0
0
0
0
0
0
0
0
0.010600056
0
0
0
0
0
0
0
0
0
0
0
0
0
0
0
0
0
0
0
0
0
0
0
0
2.3996541
2.4822976
1.6436894
1.2986983
0.2373553
0.43917185
0
0
0
0
0
0
0
0
0
0.017829463
0
0
0
0.029639534
0.020160434
0.0071410872
0.11686031
0.062501502
0.13736909
0.20339834
0
0
0
0
0
0
0
0
0
0
0
0
0
0
0
0
0
0.0019858084
0
0
0
0
0
0
0
0
0
0
0
0
1.0876702
1.2494448
1.8236499
1.7109079
0.26766032
0.52661019
0.41225291
0
0
0
0
0
0
0
0
2.0096749
2.1393346
2.2321152
0.044754182
0.14553335
1.1382742
0.80553973
0
0
0
0
0
0
0
0
0
0
0
0
0.012007221
0.0047206905
0
0
0
0
0.95290485
2.5508409
0.70697528
)

)


// ************************************************************************* //
