/*--------------------------------*- C++ -*----------------------------------*\
  =========                 |
  \\      /  F ield         | OpenFOAM: The Open Source CFD Toolbox
   \\    /   O peration     | Website:  https://openfoam.org
    \\  /    A nd           | Version:  8
     \\/     M anipulation  |
\*---------------------------------------------------------------------------*/
/*   Windows 32 and 64 bit porting by blueCAPE: http://www.bluecape.com.pt   *\
|  Based on Windows porting (2.0.x v4) by Symscape: http://www.symscape.com   |
\*---------------------------------------------------------------------------*/
FoamFile
{
    version     2.0;
    format      ascii;
    class       scalarListList;
    location    "constant/vegetation";
    object      solarLoadFineFaces;
}
// * * * * * * * * * * * * * * * * * * * * * * * * * * * * * * * * * * * * * //


5
(

1115
(
717.08284
717.08284
717.08284
0
0
717.08284
717.08284
717.08284
717.08284
0
0
717.08284
0
0
0
0
0
717.08284
717.08284
717.08284
717.08284
717.08284
717.08284
717.08284
0
0
0
717.08284
717.08284
0
285.21827
717.08284
717.08284
717.08284
717.08284
0
0
0
717.08284
24.209985
0
0
0
0
0
717.08284
0
717.08284
717.08284
79.184967
717.08284
717.08284
24.209985
37.468541
66.056284
0
0
0
66.056284
717.08284
24.209985
27.736945
27.736945
66.056284
79.184967
79.184967
23.062337
22.375349
27.095852
23.062337
25.855457
65.218924
37.468541
65.218924
25.855457
27.736945
27.736945
0
717.08284
717.08284
717.08284
23.26573
22.208799
24.209985
22.208799
22.208799
23.062337
22.375349
22.375349
22.375349
27.736945
22.375349
22.375349
27.095852
27.095852
27.095852
23.062337
27.095852
22.208799
717.08284
717.08284
717.08284
717.08284
717.08284
717.08284
717.08284
717.08284
717.08284
0
0
0
0
717.08284
717.08284
717.08284
717.08284
717.08284
717.08284
0
0
0
0
0
0
0
717.08284
717.08284
0
0
0
285.21827
65.218924
37.468541
717.08284
717.08284
717.08284
0
0
0
0
0
0
0
0
0
0
0
717.08284
717.08284
717.08284
0
717.08284
79.184967
66.056284
65.218924
717.08284
37.468541
23.26573
23.26573
66.056284
66.056284
25.855457
25.855457
25.855457
23.26573
23.26573
25.855457
717.08284
717.08284
717.08284
717.08284
717.08284
717.08284
717.08284
717.08284
717.08284
0
0
0
0
0
0
285.21827
79.184967
717.08284
717.08284
717.08284
717.08284
717.08284
717.08284
717.08284
0
0
0
0
0
0
0
0
0
0
0
0
0
0
0
0
0
0
0
0
0
0
0
0
0
0
0
0
0
0
0
0
0
0
0
0
0
0
0
0
0
0
0
0
80.639504
80.639504
80.639504
80.639504
0
0
0
0
0
0
0
0
0
0
0
0
0
0
0
0
0
0
0
0
0
80.639504
80.639504
0
80.639504
0
0
0
0
0
0
0
717.08284
717.08284
717.08284
717.08284
717.08284
717.08284
717.08284
0
717.08284
0
717.08284
0
717.08284
0
717.08284
0
717.08284
0
0
0
717.08284
717.08284
717.08284
0
717.08284
0
0
0
0
717.08284
717.08284
717.08284
717.08284
717.08284
717.08284
717.08284
717.08284
0
0
0
0
0
0
0
0
0
0
0
0
717.08284
717.08284
717.08284
717.08284
717.08284
717.08284
0
717.08284
0
717.08284
0
717.08284
0
717.08284
0
717.08284
0
717.08284
0
717.08284
0
717.08284
0
717.08284
0
717.08284
0
0
0
0
0
0
0
0
0
717.08284
717.08284
717.08284
717.08284
717.08284
717.08284
0
717.08284
0
717.08284
0
717.08284
0
0
717.08284
717.08284
0
0
0
0
0
0
0
0
0
0
0
0
0
0
0
0
0
0
0
0
0
0
0
717.08284
717.08284
717.08284
0
0
0
717.08284
717.08284
717.08284
0
0
0
717.08284
717.08284
717.08284
0
0
0
717.08284
717.08284
717.08284
0
0
0
0
0
0
0
0
0
717.08284
717.08284
717.08284
717.08284
717.08284
717.08284
0
0
0
717.08284
717.08284
717.08284
0
0
0
0
0
0
717.08284
717.08284
717.08284
717.08284
717.08284
717.08284
717.08284
717.08284
717.08284
717.08284
717.08284
717.08284
717.08284
717.08284
0
0
0
0
0
0
0
0
0
0
717.08284
717.08284
717.08284
0
0
0
0
0
717.08284
0
717.08284
717.08284
717.08284
0
717.08284
717.08284
717.08284
0
717.08284
717.08284
717.08284
0
717.08284
717.08284
717.08284
0
717.08284
717.08284
717.08284
0
717.08284
717.08284
717.08284
0
717.08284
717.08284
717.08284
0
717.08284
717.08284
717.08284
0
717.08284
717.08284
717.08284
0
717.08284
717.08284
717.08284
0
717.08284
717.08284
717.08284
0
0
717.08284
717.08284
717.08284
717.08284
717.08284
717.08284
717.08284
717.08284
0
0
717.08284
717.08284
717.08284
717.08284
0
0
0
0
717.08284
717.08284
717.08284
717.08284
717.08284
717.08284
717.08284
717.08284
0
0
0
0
0
0
0
717.08284
717.08284
717.08284
717.08284
717.08284
717.08284
717.08284
717.08284
717.08284
0
0
0
0
0
0
0
0
0
0
0
0
0
0
0
0
0
0
0
0
0
0
0
0
0
0
0
0
0
717.08284
717.08284
717.08284
717.08284
717.08284
717.08284
717.08284
717.08284
717.08284
717.08284
717.08284
717.08284
80.639504
80.639504
0
0
0
0
0
0
0
0
0
0
80.639504
80.639504
717.08284
717.08284
717.08284
717.08284
0
0
0
0
0
0
0
0
0
0
0
0
0
0
0
0
0
0
0
0
717.08284
717.08284
717.08284
717.08284
717.08284
717.08284
717.08284
717.08284
717.08284
717.08284
717.08284
717.08284
717.08284
717.08284
717.08284
717.08284
717.08284
717.08284
717.08284
717.08284
717.08284
717.08284
0
0
0
0
0
0
0
0
0
0
0
0
717.08284
717.08284
717.08284
717.08284
717.08284
717.08284
717.08284
717.08284
717.08284
717.08284
717.08284
717.08284
717.08284
717.08284
717.08284
717.08284
717.08284
717.08284
717.08284
717.08284
717.08284
717.08284
717.08284
717.08284
717.08284
717.08284
717.08284
0
0
0
0
0
0
0
0
0
0
0
0
0
0
0
0
0
0
0
0
717.08284
717.08284
0
0
0
0
0
0
0
0
0
0
0
0
0
0
0
0
0
0
0
0
0
0
717.08284
717.08284
717.08284
717.08284
717.08284
717.08284
717.08284
717.08284
0
0
0
0
0
0
717.08284
717.08284
717.08284
717.08284
717.08284
717.08284
717.08284
717.08284
717.08284
717.08284
0
0
0
0
0
0
0
0
717.08284
717.08284
717.08284
717.08284
717.08284
80.639504
80.639504
80.639504
80.639504
80.639504
80.639504
80.639504
80.639504
0
0
717.08284
717.08284
0
717.08284
717.08284
0
717.08284
717.08284
0
717.08284
717.08284
0
717.08284
717.08284
0
717.08284
717.08284
0
717.08284
717.08284
0
717.08284
717.08284
0
717.08284
717.08284
0
717.08284
717.08284
0
717.08284
80.639504
717.08284
80.639504
80.639504
0
717.08284
717.08284
717.08284
717.08284
0
717.08284
717.08284
0
0
717.08284
717.08284
717.08284
717.08284
717.08284
717.08284
717.08284
717.08284
0
0
0
0
0
0
0
0
0
0
0
0
0
717.08284
717.08284
717.08284
717.08284
717.08284
717.08284
0
0
0
0
0
717.08284
717.08284
0
0
0
0
0
0
0
0
0
0
717.08284
717.08284
717.08284
717.08284
717.08284
717.08284
717.08284
717.08284
717.08284
717.08284
717.08284
0
0
0
0
0
0
717.08284
717.08284
717.08284
717.08284
717.08284
717.08284
717.08284
717.08284
717.08284
717.08284
0
0
0
0
0
0
0
0
0
0
717.08284
0
0
0
0
0
0
0
0
0
0
0
717.08284
717.08284
717.08284
717.08284
0
0
0
717.08284
717.08284
717.08284
717.08284
717.08284
0
0
0
0
717.08284
717.08284
57.527016
192.40369
0
0
0
0
0
0
0
0
0
0
0
0
0
0
0
0
0
0
0
207.85135
0
0
0
0
0
0
0
0
1.8550201
4.4461762
0
0
0
0
0
0
0
0
0
0
20.187002
0
28.40428
0
0
0
0
0
0
0
0
0
216.28678
0
0
32.54282
0
0
0
47.285397
73.039245
210.18242
20.808988
0
0
0
0
0
0
0
0
20.41501
31.159664
0
0
0
206.73882
207.45104
214.05554
0
0
11.001078
19.024596
60.814279
0
0
0
0
0
0
0
0
0
0
0
0
0
0
0
0
0
0
0
0
0
0
0
0
2.0393987
0
0
0
0
0
186.83167
331.30638
184.47857
0
0
0
0
0
0
0
0
0
0
0
0
0
0
0
0
0
0
0
0
2.0466683
0
7.2849727
191.46803
18.774644
0
0
0
0
0
0
0
0
0
0
0
0
0
0
0
0
0
407.21909
196.77657
422.49462
428.70217
)


1115
(
585.76158
585.76158
585.76158
585.76158
585.76158
585.76158
585.76158
585.76158
585.76158
0
0
585.76158
0
0
0
0
0
52.348524
585.76158
585.76158
585.76158
585.76158
585.76158
585.76158
0
0
0
585.76158
65.877717
0
585.76158
585.76158
585.76158
585.76158
0
0
0
0
52.348524
20.946378
0
0
0
0
295.59749
52.348524
295.59749
585.76158
585.76158
35.737646
65.877717
418.66141
20.946378
49.53695
23.953658
0
0
0
23.953658
52.348524
20.946378
20.625042
20.625042
23.953658
35.737646
35.737646
30.979935
25.553777
49.127313
30.979935
46.096132
142.139
49.53695
142.139
46.096132
20.625042
20.625042
0
585.76158
585.76158
585.76158
28.290455
28.709201
20.946378
28.709201
28.709201
30.979935
25.553777
25.553777
25.553777
20.625042
25.553777
25.553777
49.127313
49.127313
49.127313
30.979935
49.127313
28.709201
585.76158
585.76158
585.76158
0
585.76158
585.76158
585.76158
585.76158
585.76158
0
0
0
295.59749
585.76158
585.76158
585.76158
585.76158
585.76158
585.76158
0
0
0
0
0
0
585.76158
585.76158
65.877717
0
585.76158
295.59749
585.76158
585.76158
49.53695
585.76158
585.76158
585.76158
0
0
0
0
0
0
0
0
0
0
295.59749
81.152253
81.152253
52.348524
295.59749
65.877717
35.737646
23.953658
585.76158
585.76158
49.53695
28.290455
28.290455
23.953658
23.953658
46.096132
46.096132
46.096132
28.290455
28.290455
46.096132
585.76158
585.76158
585.76158
585.76158
585.76158
585.76158
585.76158
585.76158
585.76158
0
0
0
0
0
0
361.03488
35.737646
585.76158
81.152253
81.152253
295.59749
585.76158
585.76158
585.76158
0
0
0
0
0
0
0
0
0
0
0
0
0
0
0
0
0
0
0
0
0
0
0
0
0
0
0
0
0
0
0
0
0
0
0
0
0
0
0
0
0
0
0
0
227.80796
227.80796
227.80796
66.932402
0
0
0
0
0
0
0
0
0
0
0
0
0
0
0
0
0
0
0
0
0
227.80796
57.374857
0
227.80796
0
0
0
0
0
0
0
585.76158
585.76158
585.76158
585.76158
585.76158
585.76158
585.76158
0
585.76158
0
585.76158
0
585.76158
0
585.76158
0
585.76158
0
0
0
585.76158
585.76158
585.76158
0
585.76158
0
0
0
0
585.76158
585.76158
585.76158
585.76158
585.76158
585.76158
585.76158
585.76158
0
0
0
0
0
0
0
0
0
0
0
0
585.76158
585.76158
585.76158
585.76158
585.76158
585.76158
0
585.76158
0
585.76158
0
585.76158
0
585.76158
0
585.76158
0
585.76158
0
585.76158
0
585.76158
0
585.76158
0
585.76158
0
0
0
0
0
0
0
0
0
585.76158
585.76158
585.76158
585.76158
585.76158
585.76158
0
585.76158
0
585.76158
0
585.76158
0
0
585.76158
585.76158
0
0
0
0
0
0
0
0
0
0
0
0
0
0
0
0
0
0
0
0
0
0
0
585.76158
585.76158
585.76158
0
0
0
585.76158
585.76158
585.76158
0
0
0
585.76158
585.76158
585.76158
0
0
0
585.76158
585.76158
585.76158
0
0
0
0
0
0
0
0
0
585.76158
585.76158
585.76158
585.76158
585.76158
585.76158
0
0
0
585.76158
585.76158
585.76158
0
0
0
0
0
0
585.76158
585.76158
585.76158
585.76158
585.76158
585.76158
585.76158
585.76158
585.76158
585.76158
585.76158
585.76158
585.76158
585.76158
0
0
0
0
0
0
0
0
0
0
585.76158
585.76158
585.76158
0
0
0
0
0
585.76158
0
585.76158
585.76158
585.76158
0
585.76158
585.76158
585.76158
0
585.76158
585.76158
585.76158
0
585.76158
585.76158
585.76158
0
585.76158
585.76158
585.76158
0
585.76158
585.76158
585.76158
0
585.76158
585.76158
585.76158
0
585.76158
585.76158
585.76158
0
585.76158
585.76158
585.76158
0
585.76158
585.76158
585.76158
0
585.76158
585.76158
585.76158
0
0
585.76158
585.76158
585.76158
585.76158
585.76158
585.76158
585.76158
585.76158
0
0
585.76158
585.76158
585.76158
585.76158
0
0
0
0
585.76158
585.76158
585.76158
585.76158
585.76158
585.76158
585.76158
585.76158
0
0
0
0
0
0
0
585.76158
585.76158
585.76158
585.76158
585.76158
585.76158
585.76158
585.76158
585.76158
0
0
0
0
0
0
0
0
0
0
0
0
0
0
0
0
0
0
0
0
0
0
0
0
0
0
0
0
0
585.76158
585.76158
585.76158
585.76158
585.76158
585.76158
585.76158
585.76158
585.76158
585.76158
585.76158
585.76158
227.80796
227.80796
0
0
0
0
0
0
0
0
0
0
227.80796
227.80796
585.76158
585.76158
585.76158
585.76158
0
0
0
0
0
0
0
0
0
0
0
0
0
0
0
0
0
0
0
0
585.76158
585.76158
585.76158
585.76158
585.76158
585.76158
585.76158
585.76158
585.76158
585.76158
585.76158
585.76158
585.76158
585.76158
585.76158
585.76158
585.76158
585.76158
585.76158
585.76158
585.76158
585.76158
0
0
0
0
0
0
0
0
0
0
0
0
585.76158
585.76158
585.76158
585.76158
585.76158
585.76158
585.76158
585.76158
585.76158
585.76158
585.76158
585.76158
585.76158
585.76158
585.76158
585.76158
585.76158
585.76158
585.76158
585.76158
585.76158
585.76158
585.76158
585.76158
585.76158
585.76158
585.76158
0
0
0
0
0
0
0
0
0
0
0
0
0
0
0
0
0
0
0
0
585.76158
585.76158
0
0
0
0
0
0
0
0
0
0
0
0
0
0
0
0
0
0
0
0
0
0
585.76158
585.76158
585.76158
585.76158
585.76158
585.76158
585.76158
585.76158
0
0
0
0
0
0
585.76158
585.76158
585.76158
585.76158
585.76158
585.76158
585.76158
585.76158
585.76158
585.76158
0
0
0
0
0
0
0
0
585.76158
585.76158
585.76158
585.76158
585.76158
227.80796
227.80796
227.80796
227.80796
227.80796
227.80796
227.80796
227.80796
0
0
585.76158
585.76158
0
585.76158
585.76158
0
585.76158
585.76158
0
585.76158
585.76158
0
585.76158
585.76158
0
585.76158
585.76158
0
585.76158
585.76158
0
585.76158
585.76158
0
585.76158
585.76158
0
585.76158
585.76158
0
585.76158
227.80796
585.76158
227.80796
227.80796
0
585.76158
585.76158
585.76158
585.76158
0
585.76158
585.76158
0
0
585.76158
585.76158
585.76158
585.76158
585.76158
585.76158
585.76158
585.76158
0
0
0
0
0
0
0
0
0
0
0
0
0
585.76158
585.76158
585.76158
585.76158
585.76158
585.76158
0
0
0
0
0
585.76158
585.76158
0
0
0
0
0
0
0
0
0
0
585.76158
585.76158
585.76158
585.76158
585.76158
585.76158
585.76158
585.76158
585.76158
585.76158
585.76158
0
0
0
0
0
0
585.76158
585.76158
585.76158
585.76158
585.76158
585.76158
585.76158
585.76158
585.76158
585.76158
0
0
0
0
0
0
0
0
0
0
585.76158
0
0
0
0
0
0
0
0
0
0
0
585.76158
585.76158
585.76158
585.76158
0
0
0
585.76158
585.76158
585.76158
585.76158
585.76158
0
0
0
0
585.76158
585.76158
0
102.28418
0
0
0
0
0
0
0
0
0
0
0
0
0
0
0
0
0
0
0
100.3005
0
0
0
0
0
0
0
0
10.563747
0
0
0
0
0
0
0
0
0
0
0
50.546319
0
58.263365
0
0
0
0
0
0
0
0
0
207.66504
0
0
0
0
0
0
0
0
83.160414
0
0
0
0
0
0
0
0
0
25.926088
59.822646
0
0
0
176.96366
177.5441
206.77343
0
0
0
0
0
0
0
0
0
0
0
0
0
0
0
0
0
0
0
0
0
0
0
0
0
0
0
0
0
0
0
0
0
0
0
105.70085
228.81176
115.76351
0
0
0
0
0
0
0
0
0
0
0
0
0
0
0
0
0
0
0
0
0
0
0
143.82141
24.38453
0
0
0
0
0
0
0
0
0
0
0
0
0
0
0
0
0
316.39722
148.34012
350.83511
378.57458
)


1115
(
536.2201
536.2201
0
536.2201
536.2201
536.2201
536.2201
536.2201
536.2201
536.2201
536.2201
536.2201
0
0
0
0
0
26.832633
536.2201
536.2201
536.2201
536.2201
536.2201
536.2201
0
0
536.2201
536.2201
41.599324
0
536.2201
536.2201
536.2201
536.2201
0
536.2201
0
0
26.832633
35.516185
0
0
0
0
50.995583
26.832633
50.995583
536.2201
536.2201
62.459604
41.599324
536.2201
35.516185
137.94803
21.14686
0
0
0
21.14686
26.832633
35.516185
28.021627
28.021627
21.14686
62.459604
62.459604
88.418985
45.871922
84.350996
88.418985
536.2201
536.2201
137.94803
536.2201
148.01743
28.021627
28.021627
0
536.2201
536.2201
536.2201
91.920862
75.797728
35.516185
75.797728
75.797728
88.418985
45.871922
45.871922
45.871922
28.021627
45.871922
45.871922
84.350996
84.350996
84.350996
536.2201
84.350996
75.797728
536.2201
536.2201
536.2201
0
536.2201
536.2201
536.2201
536.2201
536.2201
0
0
0
50.995583
536.2201
536.2201
536.2201
536.2201
536.2201
536.2201
0
536.2201
536.2201
0
391.74119
0
50.995583
50.995583
41.599324
391.74119
50.995583
50.995583
536.2201
536.2201
536.2201
536.2201
536.2201
536.2201
0
0
0
0
0
0
0
0
0
0
50.995583
28.373721
28.373721
26.832633
50.995583
41.599324
62.459604
21.14686
536.2201
536.2201
137.94803
91.920862
91.920862
21.14686
21.14686
536.2201
536.2201
536.2201
91.920862
91.920862
536.2201
536.2201
536.2201
536.2201
536.2201
536.2201
536.2201
536.2201
536.2201
536.2201
0
0
536.2201
536.2201
0
0
536.2201
62.459604
536.2201
28.373721
28.373721
50.995583
536.2201
536.2201
536.2201
0
0
0
0
0
0
0
0
0
0
0
0
0
0
0
0
0
0
0
0
0
0
0
0
0
0
0
0
0
0
0
0
0
0
0
0
0
0
0
0
0
0
0
0
30.256351
24.27225
33.462885
23.260741
0
0
0
0
0
0
0
0
0
0
0
0
0
0
0
0
0
0
0
0
0
23.966675
22.565056
0
29.145103
0
0
0
0
0
0
0
536.2201
536.2201
536.2201
536.2201
536.2201
536.2201
536.2201
0
536.2201
0
536.2201
0
536.2201
0
536.2201
0
536.2201
0
0
0
536.2201
536.2201
536.2201
0
536.2201
0
0
0
0
536.2201
536.2201
536.2201
536.2201
536.2201
536.2201
536.2201
536.2201
0
0
0
0
0
0
0
0
0
0
0
0
536.2201
536.2201
536.2201
536.2201
536.2201
536.2201
0
536.2201
0
536.2201
0
536.2201
0
536.2201
0
536.2201
0
536.2201
0
536.2201
0
536.2201
0
536.2201
0
536.2201
0
0
0
0
0
0
0
0
0
536.2201
536.2201
536.2201
536.2201
536.2201
536.2201
0
536.2201
0
536.2201
0
536.2201
0
0
536.2201
536.2201
0
0
0
0
0
0
0
0
0
0
0
0
0
0
0
0
0
0
0
0
0
0
0
536.2201
536.2201
536.2201
0
0
0
536.2201
536.2201
536.2201
0
0
0
536.2201
536.2201
536.2201
0
0
0
536.2201
536.2201
536.2201
0
0
0
0
0
0
0
0
0
536.2201
536.2201
536.2201
536.2201
536.2201
536.2201
0
0
0
536.2201
536.2201
536.2201
0
0
0
0
0
0
536.2201
536.2201
536.2201
536.2201
536.2201
536.2201
536.2201
536.2201
536.2201
536.2201
536.2201
536.2201
536.2201
536.2201
0
0
0
0
0
0
0
0
0
0
536.2201
536.2201
536.2201
0
0
0
0
0
536.2201
0
536.2201
536.2201
536.2201
0
536.2201
536.2201
536.2201
0
536.2201
536.2201
536.2201
0
536.2201
536.2201
536.2201
0
536.2201
536.2201
536.2201
0
536.2201
536.2201
536.2201
0
536.2201
536.2201
536.2201
0
536.2201
536.2201
536.2201
0
536.2201
536.2201
536.2201
0
536.2201
536.2201
536.2201
0
536.2201
536.2201
536.2201
0
0
536.2201
536.2201
536.2201
536.2201
536.2201
536.2201
536.2201
536.2201
0
0
536.2201
536.2201
536.2201
536.2201
0
0
0
0
536.2201
536.2201
536.2201
536.2201
536.2201
536.2201
536.2201
536.2201
0
0
0
0
0
0
0
536.2201
536.2201
536.2201
536.2201
536.2201
536.2201
536.2201
536.2201
536.2201
0
0
0
0
0
0
0
0
0
0
0
0
0
0
0
0
0
0
0
0
0
0
0
0
0
0
0
0
0
536.2201
536.2201
536.2201
536.2201
536.2201
536.2201
536.2201
536.2201
536.2201
536.2201
536.2201
536.2201
381.92334
381.92334
0
0
0
0
0
0
0
0
0
0
381.92334
381.92334
536.2201
536.2201
536.2201
536.2201
0
0
0
0
0
0
0
0
0
0
0
0
0
0
0
0
0
0
0
0
536.2201
536.2201
536.2201
536.2201
536.2201
536.2201
536.2201
536.2201
536.2201
536.2201
536.2201
536.2201
536.2201
536.2201
536.2201
536.2201
536.2201
536.2201
536.2201
536.2201
536.2201
536.2201
0
0
0
0
0
0
0
0
0
0
0
0
536.2201
536.2201
536.2201
536.2201
536.2201
536.2201
536.2201
536.2201
536.2201
536.2201
536.2201
536.2201
536.2201
536.2201
536.2201
536.2201
536.2201
536.2201
536.2201
536.2201
536.2201
536.2201
536.2201
536.2201
536.2201
536.2201
536.2201
0
0
0
0
0
0
0
0
0
0
0
0
0
0
0
0
0
0
0
0
536.2201
536.2201
0
0
0
0
0
0
0
0
0
0
0
0
0
0
0
0
0
0
0
0
0
0
536.2201
536.2201
536.2201
536.2201
536.2201
536.2201
536.2201
536.2201
0
0
0
0
0
0
536.2201
536.2201
536.2201
536.2201
536.2201
536.2201
536.2201
536.2201
536.2201
536.2201
0
0
0
0
0
0
0
0
536.2201
536.2201
536.2201
536.2201
536.2201
381.92334
381.92334
381.92334
381.92334
381.92334
381.92334
381.92334
381.92334
0
0
536.2201
536.2201
0
536.2201
536.2201
0
536.2201
536.2201
0
536.2201
536.2201
0
536.2201
536.2201
0
536.2201
536.2201
0
536.2201
536.2201
0
536.2201
536.2201
0
536.2201
536.2201
0
536.2201
536.2201
0
536.2201
381.92334
536.2201
381.92334
381.92334
0
536.2201
536.2201
536.2201
536.2201
0
536.2201
536.2201
0
0
536.2201
536.2201
536.2201
536.2201
536.2201
536.2201
536.2201
536.2201
0
0
0
0
0
0
0
0
0
0
0
0
0
536.2201
536.2201
536.2201
536.2201
536.2201
536.2201
0
0
0
0
0
536.2201
536.2201
0
0
0
0
0
0
0
0
0
0
536.2201
536.2201
536.2201
536.2201
536.2201
536.2201
536.2201
536.2201
536.2201
536.2201
536.2201
0
0
0
0
0
0
536.2201
536.2201
536.2201
536.2201
536.2201
536.2201
536.2201
536.2201
536.2201
536.2201
0
0
0
0
0
0
0
0
0
0
536.2201
0
0
0
0
0
0
0
0
0
0
0
536.2201
536.2201
536.2201
536.2201
0
0
0
536.2201
536.2201
536.2201
536.2201
536.2201
0
0
0
0
536.2201
536.2201
0
44.507278
0
0
0
0
0
0
0
0
0
0
0
0
0
0
0
0
0
0
0
0
0
0
0
0
0
0
0
0
31.738757
0
0
0
0
0
0
0
0
0
0
0
94.960077
0
103.04674
0
0
0
0
0
0
0
0
0
234.03776
0
0
0
0
0
0
0
0
0
0
0
0
0
0
0
0
0
0
45.918512
103.72444
0
0
0
181.50444
182.02733
234.23492
0
0
0
0
0
0
0
0
0
0
0
0
0
0
0
0
0
0
0
0
0
0
0
0
0
0
0
0
0
0
0
0
0
0
0
56.511157
173.09945
78.941676
0
0
0
0
0
0
0
0
0
0
0
0
0
0
0
0
0
0
0
0
0
0
0
128.96317
44.299844
0
0
0
0
0
0
0
0
0
0
0
0
0
0
0
0
0
280.22893
133.24623
335.35216
384.97258
)


1115
(
411.8157
411.8157
411.8157
411.8157
411.8157
411.8157
411.8157
411.8157
411.8157
411.8157
411.8157
411.8157
186.92859
31.429562
0
186.92859
31.429562
21.681425
411.8157
411.8157
411.8157
411.8157
411.8157
411.8157
31.429562
186.92859
411.8157
411.8157
49.621908
31.429562
411.8157
411.8157
411.8157
411.8157
411.8157
411.8157
186.92859
0
21.681425
14.701787
0
0
0
0
42.048643
21.681425
42.048643
411.8157
411.8157
106.19744
49.621908
411.8157
14.701787
119.46899
25.479383
411.8157
411.8157
0
25.479383
21.681425
14.701787
9.3418334
9.3418334
25.479383
411.8157
411.8157
22.842479
9.0939052
11.5645
22.842479
38.988453
189.89896
411.8157
189.89896
38.988453
9.3418334
9.3418334
0
411.8157
411.8157
411.8157
43.03722
12.881304
14.701787
12.881304
12.881304
22.842479
9.0939052
9.0939052
9.0939052
9.3418334
9.0939052
9.0939052
11.5645
11.5645
11.5645
22.842479
11.5645
12.881304
411.8157
411.8157
411.8157
411.8157
411.8157
411.8157
411.8157
411.8157
411.8157
186.92859
0
0
42.048643
411.8157
411.8157
411.8157
411.8157
411.8157
411.8157
0
119.29878
119.29878
411.8157
119.29878
0
42.048643
42.048643
49.621908
119.29878
42.048643
42.048643
411.8157
411.8157
411.8157
411.8157
411.8157
411.8157
0
411.8157
411.8157
403.91993
403.91993
0
186.92859
0
0
0
42.048643
21.440973
21.440973
21.681425
42.048643
49.621908
106.19744
25.479383
411.8157
411.8157
119.46899
43.03722
43.03722
25.479383
25.479383
38.988453
38.988453
38.988453
43.03722
43.03722
38.988453
411.8157
411.8157
411.8157
411.8157
411.8157
411.8157
411.8157
411.8157
411.8157
411.8157
411.8157
411.8157
411.8157
411.8157
411.8157
411.8157
411.8157
411.8157
21.440973
21.440973
42.048643
411.8157
411.8157
411.8157
0
0
0
0
0
0
0
0
0
0
0
0
0
0
0
0
0
0
0
0
0
0
0
0
0
0
0
0
0
0
0
0
0
0
0
0
0
0
0
0
0
0
0
0
27.239898
24.805111
27.80667
24.919597
0
0
0
0
0
0
0
0
0
0
0
0
0
0
0
0
0
0
0
0
0
27.99661
25.304163
0
29.125676
0
0
0
0
0
0
0
411.8157
411.8157
411.8157
411.8157
411.8157
411.8157
411.8157
0
411.8157
0
411.8157
0
411.8157
0
411.8157
0
411.8157
0
0
0
411.8157
411.8157
411.8157
0
411.8157
0
0
0
0
411.8157
411.8157
411.8157
411.8157
411.8157
411.8157
411.8157
411.8157
0
0
0
0
0
0
0
0
0
0
0
0
411.8157
411.8157
411.8157
411.8157
411.8157
411.8157
0
411.8157
0
411.8157
0
411.8157
0
411.8157
0
411.8157
0
411.8157
0
411.8157
0
411.8157
0
411.8157
0
411.8157
0
0
0
0
0
0
0
0
0
411.8157
411.8157
411.8157
411.8157
411.8157
411.8157
0
411.8157
0
411.8157
0
411.8157
0
0
411.8157
411.8157
0
0
0
0
0
0
0
0
0
0
0
0
0
0
0
0
0
0
0
0
0
0
0
411.8157
411.8157
411.8157
0
0
0
411.8157
411.8157
411.8157
0
0
0
411.8157
411.8157
411.8157
0
0
0
411.8157
411.8157
411.8157
0
0
0
0
0
0
0
0
0
411.8157
411.8157
411.8157
411.8157
411.8157
411.8157
0
0
0
411.8157
411.8157
411.8157
0
0
0
0
0
0
411.8157
411.8157
411.8157
411.8157
411.8157
411.8157
411.8157
411.8157
411.8157
411.8157
411.8157
411.8157
411.8157
411.8157
0
0
0
0
0
0
0
0
0
0
411.8157
411.8157
411.8157
0
0
0
0
0
411.8157
0
411.8157
411.8157
411.8157
0
411.8157
411.8157
411.8157
0
411.8157
411.8157
411.8157
0
411.8157
411.8157
411.8157
0
411.8157
411.8157
411.8157
0
411.8157
411.8157
411.8157
0
411.8157
411.8157
411.8157
0
411.8157
411.8157
411.8157
0
411.8157
411.8157
411.8157
0
411.8157
411.8157
411.8157
0
411.8157
411.8157
411.8157
0
0
411.8157
411.8157
411.8157
411.8157
411.8157
411.8157
411.8157
411.8157
0
0
411.8157
411.8157
411.8157
411.8157
0
0
0
0
411.8157
411.8157
411.8157
411.8157
411.8157
411.8157
411.8157
411.8157
0
0
0
0
0
0
0
411.8157
411.8157
411.8157
411.8157
411.8157
411.8157
411.8157
411.8157
411.8157
0
0
0
0
0
0
0
0
0
0
0
0
0
0
0
0
0
0
0
0
0
0
0
0
0
0
0
0
0
411.8157
411.8157
411.8157
411.8157
411.8157
411.8157
411.8157
411.8157
411.8157
411.8157
411.8157
411.8157
471.50949
471.50949
0
0
0
0
0
0
0
0
0
0
471.50949
471.50949
411.8157
411.8157
411.8157
411.8157
0
0
0
0
0
0
0
0
0
0
0
0
0
0
0
0
0
0
0
0
411.8157
411.8157
411.8157
411.8157
411.8157
411.8157
411.8157
411.8157
411.8157
411.8157
411.8157
411.8157
411.8157
411.8157
411.8157
411.8157
411.8157
411.8157
411.8157
411.8157
411.8157
411.8157
0
0
0
0
0
0
0
0
0
0
0
0
411.8157
411.8157
411.8157
411.8157
411.8157
411.8157
411.8157
411.8157
411.8157
411.8157
411.8157
411.8157
411.8157
411.8157
411.8157
411.8157
411.8157
411.8157
411.8157
411.8157
411.8157
411.8157
411.8157
411.8157
411.8157
411.8157
411.8157
0
0
0
0
0
0
0
0
0
0
0
0
0
0
0
0
0
0
0
0
411.8157
411.8157
0
0
0
0
0
0
0
0
0
0
0
0
0
0
0
0
0
0
0
0
0
0
411.8157
411.8157
411.8157
411.8157
411.8157
411.8157
411.8157
411.8157
0
0
0
0
0
0
411.8157
411.8157
411.8157
411.8157
411.8157
411.8157
411.8157
411.8157
411.8157
411.8157
0
0
0
0
0
0
0
0
411.8157
411.8157
411.8157
411.8157
411.8157
471.50949
471.50949
471.50949
471.50949
471.50949
471.50949
471.50949
471.50949
0
0
411.8157
411.8157
0
411.8157
411.8157
0
411.8157
411.8157
0
411.8157
411.8157
0
411.8157
411.8157
0
411.8157
411.8157
0
411.8157
411.8157
0
411.8157
411.8157
0
411.8157
411.8157
0
411.8157
411.8157
0
411.8157
471.50949
411.8157
471.50949
471.50949
0
411.8157
411.8157
411.8157
411.8157
0
411.8157
411.8157
0
0
411.8157
411.8157
411.8157
411.8157
411.8157
411.8157
411.8157
411.8157
0
0
0
0
0
0
0
0
0
0
0
0
0
411.8157
411.8157
411.8157
411.8157
411.8157
411.8157
0
0
0
0
0
411.8157
411.8157
0
0
0
0
0
0
0
0
0
0
411.8157
411.8157
411.8157
411.8157
411.8157
411.8157
411.8157
411.8157
411.8157
411.8157
411.8157
0
0
0
0
0
0
411.8157
411.8157
411.8157
411.8157
411.8157
411.8157
411.8157
411.8157
411.8157
411.8157
0
0
0
0
0
0
0
0
0
0
411.8157
0
0
0
0
0
0
0
0
0
0
0
411.8157
411.8157
411.8157
411.8157
0
0
0
411.8157
411.8157
411.8157
411.8157
411.8157
0
0
0
0
411.8157
411.8157
0
0
0
0
0
0
0
0
0
0
0
0
0
0
0
0
0
0
0
0
0
0
0
0
0
0
0
0
0
0
58.859718
1.7439326
0
0
0
0
0
55.41909
55.417848
55.405124
56.178765
55.409663
134.6246
55.534221
141.83495
0
0
0
0
0
0
0
0
0
235.15302
0
0
0
0
0
0
0
0
0
0
0
0
0
0
0
0
0
0
69.775462
141.57603
0
0
0
169.78912
170.17534
236.36171
0
0
0
0
0
0
0
0
0
0
0
0
0
0
0
0
0
0
0
0
0
0
0
0
0
0
0
0
0
0
0
0
0
0
0
11.550802
103.59611
42.732011
0
0
0
0
0
0
0
0
0
0
0
0
0
0
0
0
0
0
0
0
0
0
4.8109571
106.54976
68.327052
0
0
0
0
0
0
0
0
0
0
0
0
0
0
0
0
0
213.1599
109.94329
279.82909
342.79478
)


1115
(
284.42858
284.42858
284.42858
284.42858
284.42858
284.42858
284.42858
284.42858
284.42858
284.42858
284.42858
284.42858
94.522385
30.683553
85.953872
94.522385
30.683553
7.407854
284.42858
284.42858
284.42858
284.42858
284.42858
284.42858
30.683553
94.522385
284.42858
284.42858
164.14984
30.683553
284.42858
284.42858
284.42858
284.42858
284.42858
284.42858
94.522385
284.42858
7.407854
17.348025
37.149302
37.149302
78.677489
78.677489
141.24324
7.407854
141.24324
284.42858
284.42858
222.62237
284.42858
284.42858
17.348025
155.17089
26.674495
284.42858
284.42858
284.42858
26.674495
7.407854
17.348025
9.1294275
9.1294275
26.674495
284.42858
284.42858
29.006231
0
0
29.006231
50.926865
284.42858
284.42858
284.42858
50.926865
9.1294275
9.1294275
85.953872
284.42858
284.42858
284.42858
57.82719
16.810231
17.348025
16.810231
16.810231
29.006231
0
0
0
9.1294275
0
0
0
0
0
29.006231
0
16.810231
284.42858
284.42858
284.42858
284.42858
284.42858
284.42858
284.42858
284.42858
284.42858
94.522385
37.149302
78.677489
141.24324
284.42858
284.42858
284.42858
284.42858
284.42858
284.42858
37.149302
284.42858
284.42858
284.42858
284.42858
37.149302
141.24324
284.42858
284.42858
284.42858
284.42858
141.24324
284.42858
284.42858
284.42858
284.42858
284.42858
284.42858
78.677489
284.42858
284.42858
284.42858
284.42858
85.953872
94.522385
37.149302
78.677489
78.677489
141.24324
7.5610456
7.5610456
7.407854
141.24324
284.42858
284.42858
284.42858
284.42858
284.42858
155.17089
57.82719
57.82719
26.674495
26.674495
50.926865
50.926865
50.926865
57.82719
57.82719
50.926865
284.42858
284.42858
284.42858
284.42858
284.42858
284.42858
284.42858
284.42858
284.42858
284.42858
284.42858
284.42858
284.42858
284.42858
284.42858
284.42858
284.42858
284.42858
7.5610456
7.5610456
141.24324
284.42858
284.42858
284.42858
1.0518652
1.6305539
4.6366965
1.8364546
1.0138463
1.1686796
1.2084608
3.053991
2.6266723
0.77410672
0.67277062
13.053587
13.053587
4.1893134
1.1807229
1.0903427
2.512447
1.4481576
2.8916488
2.0689105
1.1381619
0.97612821
1.1958455
1.1292912
1.565763
1.6387993
2.6297707
1.286543
1.7614934
1.843647
3.6069346
5.6706391
6.100811
3.0888031
2.3312588
4.8158315
5.1542318
1.1523414
0.87420975
0.99486976
1.0116639
0.52849706
0.89509516
0.95345787
19.33373
9.9163286
14.768205
13.33813
13.053587
13.053587
1.2382054
2.2313557
3.4280869
1.0959099
1.2957952
1.3922014
1.4570639
2.3354756
1.9822587
2.074779
13.053587
13.053587
3.6622582
4.0654725
4.3446642
1.1083414
1.0512329
1.0623062
0.63986399
21.553348
16.191933
0.77359257
25.298157
13.053587
13.053587
13.053587
13.053587
3.1667153
13.053587
13.053587
284.42858
284.42858
284.42858
284.42858
284.42858
284.42858
284.42858
13.053587
284.42858
13.053587
284.42858
13.053587
284.42858
13.053587
284.42858
13.053587
284.42858
2.4029
13.053587
4.6985961
284.42858
284.42858
284.42858
13.053587
284.42858
13.053587
13.053587
13.053587
13.053587
284.42858
284.42858
284.42858
284.42858
284.42858
284.42858
284.42858
284.42858
13.053587
13.053587
13.053587
13.053587
1.3031226
1.8532524
3.1139168
2.0849944
13.053587
13.053587
3.6907506
13.053587
284.42858
284.42858
284.42858
284.42858
284.42858
284.42858
13.053587
284.42858
13.053587
284.42858
13.053587
284.42858
13.053587
284.42858
13.053587
284.42858
13.053587
284.42858
13.053587
284.42858
13.053587
284.42858
13.053587
284.42858
13.053587
284.42858
1.7333186
1.0632861
1.1940415
1.0525282
0.99866875
2.2278648
5.9875263
13.053587
13.053587
284.42858
284.42858
284.42858
284.42858
284.42858
284.42858
13.053587
284.42858
13.053587
284.42858
13.053587
284.42858
13.053587
13.053587
284.42858
284.42858
13.053587
13.053587
13.053587
13.053587
13.053587
13.053587
13.053587
6.0758892
3.9940277
2.4786622
4.3649121
1.5497344
2.2031236
13.053587
4.7491866
13.053587
13.053587
13.053587
13.053587
13.053587
13.053587
13.053587
13.053587
284.42858
284.42858
284.42858
13.053587
13.053587
13.053587
284.42858
284.42858
284.42858
13.053587
13.053587
13.053587
284.42858
284.42858
284.42858
13.053587
13.053587
13.053587
284.42858
284.42858
284.42858
1.9623179
1.3804709
1.1159401
13.053587
13.053587
13.053587
2.5190609
13.053587
13.053587
284.42858
284.42858
284.42858
284.42858
284.42858
284.42858
13.053587
13.053587
13.053587
284.42858
284.42858
284.42858
13.053587
13.053587
13.053587
13.053587
13.053587
13.053587
284.42858
284.42858
284.42858
284.42858
284.42858
284.42858
284.42858
284.42858
284.42858
284.42858
284.42858
284.42858
284.42858
284.42858
13.053587
13.053587
13.053587
13.053587