/*--------------------------------*- C++ -*----------------------------------*\
  =========                 |
  \\      /  F ield         | OpenFOAM: The Open Source CFD Toolbox
   \\    /   O peration     | Website:  https://openfoam.org
    \\  /    A nd           | Version:  8
     \\/     M anipulation  |
\*---------------------------------------------------------------------------*/
/*   Windows 32 and 64 bit porting by blueCAPE: http://www.bluecape.com.pt   *\
|  Based on Windows porting (2.0.x v4) by Symscape: http://www.symscape.com   |
\*---------------------------------------------------------------------------*/
FoamFile
{
    version     2.0;
    format      ascii;
    class       scalarListList;
    location    "constant/vegetation";
    object      sunViewCoeff;
}
// * * * * * * * * * * * * * * * * * * * * * * * * * * * * * * * * * * * * * //


5
(

808
(
0
0
0
0
717.08284
355.97894
717.08284
717.08284
411.31501
617.93868
0
0
0
717.08284
717.08284
717.08284
717.08284
357.47356
717.08284
717.08284
717.08284
24.209985
0
0
163.66106
717.08284
79.184967
37.468541
66.056284
0
27.736945
23.062337
22.375349
27.095852
25.855457
65.218924
717.08284
23.26573
22.208799
0
717.08284
0
0
0
0
0
0
0
0
0
0
0
0
0
0
0
0
0
0
0
0
0
0
0
0
0
0
0
0
0
0
0
0
0
0
0
0
0
0
0
0
0
0
0
0
0
0
0
0
0
80.639504
80.639504
80.639504
80.639504
0
0
0
0
0
0
0
0
0
0
0
0
0
0
0
0
0
0
0
0
0
80.639504
80.639504
0
80.639504
0
0
0
0
0
0
0
717.08284
717.08284
717.08284
717.08284
717.08284
717.08284
717.08284
0
717.08284
0
717.08284
0
717.08284
0
717.08284
0
717.08284
0
0
0
717.08284
717.08284
717.08284
0
717.08284
0
0
0
0
717.08284
717.08284
717.08284
717.08284
717.08284
717.08284
717.08284
717.08284
0
0
0
0
0
0
0
0
0
0
0
0
717.08284
717.08284
717.08284
717.08284
717.08284
717.08284
0
717.08284
0
717.08284
0
717.08284
0
717.08284
0
717.08284
0
717.08284
0
717.08284
0
717.08284
0
717.08284
0
717.08284
0
0
0
0
0
0
0
0
0
717.08284
717.08284
717.08284
717.08284
717.08284
717.08284
0
717.08284
0
717.08284
0
717.08284
0
0
717.08284
717.08284
0
0
0
0
0
0
0
0
0
0
0
0
0
0
0
0
0
0
0
0
0
0
0
717.08284
717.08284
717.08284
0
0
0
717.08284
717.08284
717.08284
0
0
0
717.08284
717.08284
717.08284
0
0
0
717.08284
717.08284
717.08284
0
0
0
0
0
0
0
0
0
717.08284
717.08284
717.08284
717.08284
717.08284
717.08284
0
0
0
717.08284
717.08284
717.08284
0
0
0
0
0
0
717.08284
717.08284
717.08284
717.08284
717.08284
717.08284
717.08284
717.08284
717.08284
717.08284
717.08284
717.08284
717.08284
717.08284
0
0
0
0
0
0
0
0
0
0
717.08284
717.08284
717.08284
0
0
0
0
0
717.08284
0
717.08284
717.08284
717.08284
0
717.08284
717.08284
717.08284
0
717.08284
717.08284
717.08284
0
717.08284
717.08284
717.08284
0
717.08284
717.08284
717.08284
0
717.08284
717.08284
717.08284
0
717.08284
717.08284
717.08284
0
717.08284
717.08284
717.08284
0
717.08284
717.08284
717.08284
0
717.08284
717.08284
717.08284
0
717.08284
717.08284
717.08284
0
0
717.08284
717.08284
717.08284
717.08284
717.08284
717.08284
717.08284
717.08284
0
0
717.08284
717.08284
717.08284
717.08284
0
0
0
0
717.08284
717.08284
717.08284
717.08284
717.08284
717.08284
717.08284
717.08284
0
0
0
0
0
0
0
717.08284
717.08284
717.08284
717.08284
717.08284
717.08284
717.08284
717.08284
717.08284
0
0
0
0
0
0
0
0
0
0
0
0
0
0
0
0
0
0
0
0
0
0
0
0
0
0
0
0
0
717.08284
717.08284
717.08284
717.08284
717.08284
717.08284
717.08284
717.08284
717.08284
717.08284
717.08284
717.08284
80.639504
80.639504
0
0
0
0
0
0
0
0
0
0
80.639504
80.639504
717.08284
717.08284
717.08284
717.08284
0
0
0
0
0
0
0
0
0
0
0
0
0
0
0
0
0
0
0
0
717.08284
717.08284
717.08284
717.08284
717.08284
717.08284
717.08284
717.08284
717.08284
717.08284
717.08284
717.08284
717.08284
717.08284
717.08284
717.08284
717.08284
717.08284
717.08284
717.08284
717.08284
717.08284
0
0
0
0
0
0
0
0
0
0
0
0
717.08284
717.08284
717.08284
717.08284
717.08284
717.08284
717.08284
717.08284
717.08284
717.08284
717.08284
717.08284
717.08284
717.08284
717.08284
717.08284
717.08284
717.08284
717.08284
717.08284
717.08284
717.08284
717.08284
717.08284
717.08284
717.08284
717.08284
0
0
0
0
0
0
0
0
0
0
0
0
0
0
0
0
0
0
0
0
717.08284
717.08284
0
0
0
0
0
0
0
0
0
0
0
0
0
0
0
0
0
0
0
0
0
0
717.08284
717.08284
717.08284
717.08284
717.08284
717.08284
717.08284
717.08284
0
0
0
0
0
0
717.08284
717.08284
717.08284
717.08284
717.08284
717.08284
717.08284
717.08284
717.08284
717.08284
0
0
0
0
0
0
0
0
717.08284
717.08284
717.08284
717.08284
717.08284
80.639504
80.639504
80.639504
80.639504
80.639504
80.639504
80.639504
80.639504
0
0
717.08284
717.08284
0
717.08284
717.08284
0
717.08284
717.08284
0
717.08284
717.08284
0
717.08284
717.08284
0
717.08284
717.08284
0
717.08284
717.08284
0
717.08284
717.08284
0
717.08284
717.08284
0
717.08284
717.08284
0
717.08284
80.639504
717.08284
80.639504
80.639504
0
717.08284
717.08284
717.08284
717.08284
0
717.08284
717.08284
0
0
717.08284
717.08284
717.08284
717.08284
717.08284
717.08284
717.08284
717.08284
0
0
0
0
0
0
0
0
0
0
0
0
0
717.08284
717.08284
717.08284
717.08284
717.08284
717.08284
0
0
0
0
0
717.08284
717.08284
0
0
0
0
0
0
0
0
0
0
717.08284
717.08284
717.08284
717.08284
717.08284
717.08284
717.08284
717.08284
717.08284
717.08284
717.08284
0
0
0
0
0
0
717.08284
717.08284
717.08284
717.08284
717.08284
717.08284
717.08284
717.08284
717.08284
717.08284
0
0
0
0
0
0
0
0
0
0
717.08284
0
0
0
0
0
0
0
0
0
0
0
717.08284
717.08284
717.08284
717.08284
0
0
0
717.08284
717.08284
717.08284
717.08284
717.08284
0
0
0
0
717.08284
717.08284
30.301603
0
60.593466
)


808
(
0
0
0
0
527.25631
585.76158
585.76158
585.76158
335.98981
568.64522
0
0
0
52.348524
585.76158
585.76158
585.76158
292.00849
545.05767
65.877717
440.17258
20.946378
0
0
455.31932
585.76158
35.737646
49.53695
23.953658
0
20.625042
30.979935
25.553777
49.127313
46.096132
365.28112
585.76158
28.290455
28.709201
0
81.152253
0
0
0
0
0
0
0
0
0
0
0
0
0
0
0
0
0
0
0
0
0
0
0
0
0
0
0
0
0
0
0
0
0
0
0
0
0
0
0
0
0
0
0
0
0
0
0
0
0
227.80796
227.80796
227.80796
66.932402
0
0
0
0
0
0
0
0
0
0
0
0
0
0
0
0
0
0
0
0
0
227.80796
57.374857
0
227.80796
0
0
0
0
0
0
0
585.76158
585.76158
585.76158
585.76158
585.76158
585.76158
585.76158
0
585.76158
0
585.76158
0
585.76158
0
585.76158
0
585.76158
0
0
0
585.76158
585.76158
585.76158
0
585.76158
0
0
0
0
585.76158
585.76158
585.76158
585.76158
585.76158
585.76158
585.76158
585.76158
0
0
0
0
0
0
0
0
0
0
0
0
585.76158
585.76158
585.76158
585.76158
585.76158
585.76158
0
585.76158
0
585.76158
0
585.76158
0
585.76158
0
585.76158
0
585.76158
0
585.76158
0
585.76158
0
585.76158
0
585.76158
0
0
0
0
0
0
0
0
0
585.76158
585.76158
585.76158
585.76158
585.76158
585.76158
0
585.76158
0
585.76158
0
585.76158
0
0
585.76158
585.76158
0
0
0
0
0
0
0
0
0
0
0
0
0
0
0
0
0
0
0
0
0
0
0
585.76158
585.76158
585.76158
0
0
0
585.76158
585.76158
585.76158
0
0
0
585.76158
585.76158
585.76158
0
0
0
585.76158
585.76158
585.76158
0
0
0
0
0
0
0
0
0
585.76158
585.76158
585.76158
585.76158
585.76158
585.76158
0
0
0
585.76158
585.76158
585.76158
0
0
0
0
0
0
585.76158
585.76158
585.76158
585.76158
585.76158
585.76158
585.76158
585.76158
585.76158
585.76158
585.76158
585.76158
585.76158
585.76158
0
0
0
0
0
0
0
0
0
0
585.76158
585.76158
585.76158
0
0
0
0
0
585.76158
0
585.76158
585.76158
585.76158
0
585.76158
585.76158
585.76158
0
585.76158
585.76158
585.76158
0
585.76158
585.76158
585.76158
0
585.76158
585.76158
585.76158
0
585.76158
585.76158
585.76158
0
585.76158
585.76158
585.76158
0
585.76158
585.76158
585.76158
0
585.76158
585.76158
585.76158
0
585.76158
585.76158
585.76158
0
585.76158
585.76158
585.76158
0
0
585.76158
585.76158
585.76158
585.76158
585.76158
585.76158
585.76158
585.76158
0
0
585.76158
585.76158
585.76158
585.76158
0
0
0
0
585.76158
585.76158
585.76158
585.76158
585.76158
585.76158
585.76158
585.76158
0
0
0
0
0
0
0
585.76158
585.76158
585.76158
585.76158
585.76158
585.76158
585.76158
585.76158
585.76158
0
0
0
0
0
0
0
0
0
0
0
0
0
0
0
0
0
0
0
0
0
0
0
0
0
0
0
0
0
585.76158
585.76158
585.76158
585.76158
585.76158
585.76158
585.76158
585.76158
585.76158
585.76158
585.76158
585.76158
227.80796
227.80796
0
0
0
0
0
0
0
0
0
0
227.80796
227.80796
585.76158
585.76158
585.76158
585.76158
0
0
0
0
0
0
0
0
0
0
0
0
0
0
0
0
0
0
0
0
585.76158
585.76158
585.76158
585.76158
585.76158
585.76158
585.76158
585.76158
585.76158
585.76158
585.76158
585.76158
585.76158
585.76158
585.76158
585.76158
585.76158
585.76158
585.76158
585.76158
585.76158
585.76158
0
0
0
0
0
0
0
0
0
0
0
0
585.76158
585.76158
585.76158
585.76158
585.76158
585.76158
585.76158
585.76158
585.76158
585.76158
585.76158
585.76158
585.76158
585.76158
585.76158
585.76158
585.76158
585.76158
585.76158
585.76158
585.76158
585.76158
585.76158
585.76158
585.76158
585.76158
585.76158
0
0
0
0
0
0
0
0
0
0
0
0
0
0
0
0
0
0
0
0
585.76158
585.76158
0
0
0
0
0
0
0
0
0
0
0
0
0
0
0
0
0
0
0
0
0
0
585.76158
585.76158
585.76158
585.76158
585.76158
585.76158
585.76158
585.76158
0
0
0
0
0
0
585.76158
585.76158
585.76158
585.76158
585.76158
585.76158
585.76158
585.76158
585.76158
585.76158
0
0
0
0
0
0
0
0
585.76158
585.76158
585.76158
585.76158
585.76158
227.80796
227.80796
227.80796
227.80796
227.80796
227.80796
227.80796
227.80796
0
0
585.76158
585.76158
0
585.76158
585.76158
0
585.76158
585.76158
0
585.76158
585.76158
0
585.76158
585.76158
0
585.76158
585.76158
0
585.76158
585.76158
0
585.76158
585.76158
0
585.76158
585.76158
0
585.76158
585.76158
0
585.76158
227.80796
585.76158
227.80796
227.80796
0
585.76158
585.76158
585.76158
585.76158
0
585.76158
585.76158
0
0
585.76158
585.76158
585.76158
585.76158
585.76158
585.76158
585.76158
585.76158
0
0
0
0
0
0
0
0
0
0
0
0
0
585.76158
585.76158
585.76158
585.76158
585.76158
585.76158
0
0
0
0
0
585.76158
585.76158
0
0
0
0
0
0
0
0
0
0
585.76158
585.76158
585.76158
585.76158
585.76158
585.76158
585.76158
585.76158
585.76158
585.76158
585.76158
0
0
0
0
0
0
585.76158
585.76158
585.76158
585.76158
585.76158
585.76158
585.76158
585.76158
585.76158
585.76158
0
0
0
0
0
0
0
0
0
0
585.76158
0
0
0
0
0
0
0
0
0
0
0
585.76158
585.76158
585.76158
585.76158
0
0
0
585.76158
585.76158
585.76158
585.76158
585.76158
0
0
0
0
585.76158
585.76158
11.888579
0
54.961724
)


808
(
0
0
0
0
428.4933
536.2201
536.2201
536.2201
460.73315
536.2201
0
0
0
26.832633
536.2201
536.2201
536.2201
536.2201
536.2201
41.599324
402.94446
35.516185
0
0
50.995583
536.2201
62.459604
297.88162
21.14686
0
28.021627
196.57283
45.871922
84.350996
470.82618
536.2201
536.2201
91.920862
75.797728
463.80741
28.373721
0
0
0
0
0
0
0
0
0
0
0
0
0
0
0
0
0
0
0
0
0
0
0
0
0
0
0
0
0
0
0
0
0
0
0
0
0
0
0
0
0
0
0
0
0
0
0
0
0
30.256351
24.27225
33.462885
23.260741
0
0
0
0
0
0
0
0
0
0
0
0
0
0
0
0
0
0
0
0
0
23.966675
22.565056
0
29.145103
0
0
0
0
0
0
0
536.2201
536.2201
536.2201
536.2201
536.2201
536.2201
536.2201
0
536.2201
0
536.2201
0
536.2201
0
536.2201
0
536.2201
0
0
0
536.2201
536.2201
536.2201
0
536.2201
0
0
0
0
536.2201
536.2201
536.2201
536.2201
536.2201
536.2201
536.2201
536.2201
0
0
0
0
0
0
0
0
0
0
0
0
536.2201
536.2201
536.2201
536.2201
536.2201
536.2201
0
536.2201
0
536.2201
0
536.2201
0
536.2201
0
536.2201
0
536.2201
0
536.2201
0
536.2201
0
536.2201
0
536.2201
0
0
0
0
0
0
0
0
0
536.2201
536.2201
536.2201
536.2201
536.2201
536.2201
0
536.2201
0
536.2201
0
536.2201
0
0
536.2201
536.2201
0
0
0
0
0
0
0
0
0
0
0
0
0
0
0
0
0
0
0
0
0
0
0
536.2201
536.2201
536.2201
0
0
0
536.2201
536.2201
536.2201
0
0
0
536.2201
536.2201
536.2201
0
0
0
536.2201
536.2201
536.2201
0
0
0
0
0
0
0
0
0
536.2201
536.2201
536.2201
536.2201
536.2201
536.2201
0
0
0
536.2201
536.2201
536.2201
0
0
0
0
0
0
536.2201
536.2201
536.2201
536.2201
536.2201
536.2201
536.2201
536.2201
536.2201
536.2201
536.2201
536.2201
536.2201
536.2201
0
0
0
0
0
0
0
0
0
0
536.2201
536.2201
536.2201
0
0
0
0
0
536.2201
0
536.2201
536.2201
536.2201
0
536.2201
536.2201
536.2201
0
536.2201
536.2201
536.2201
0
536.2201
536.2201
536.2201
0
536.2201
536.2201
536.2201
0
536.2201
536.2201
536.2201
0
536.2201
536.2201
536.2201
0
536.2201
536.2201
536.2201
0
536.2201
536.2201
536.2201
0
536.2201
536.2201
536.2201
0
536.2201
536.2201
536.2201
0
0
536.2201
536.2201
536.2201
536.2201
536.2201
536.2201
536.2201
536.2201
0
0
536.2201
536.2201
536.2201
536.2201
0
0
0
0
536.2201
536.2201
536.2201
536.2201
536.2201
536.2201
536.2201
536.2201
0
0
0
0
0
0
0
536.2201
536.2201
536.2201
536.2201
536.2201
536.2201
536.2201
536.2201
536.2201
0
0
0
0
0
0
0
0
0
0
0
0
0
0
0
0
0
0
0
0
0
0
0
0
0
0
0
0
0
536.2201
536.2201
536.2201
536.2201
536.2201
536.2201
536.2201
536.2201
536.2201
536.2201
536.2201
536.2201
381.92334
381.92334
0
0
0
0
0
0
0
0
0
0
381.92334
381.92334
536.2201
536.2201
536.2201
536.2201
0
0
0
0
0
0
0
0
0
0
0
0
0
0
0
0
0
0
0
0
536.2201
536.2201
536.2201
536.2201
536.2201
536.2201
536.2201
536.2201
536.2201
536.2201
536.2201
536.2201
536.2201
536.2201
536.2201
536.2201
536.2201
536.2201
536.2201
536.2201
536.2201
536.2201
0
0
0
0
0
0
0
0
0
0
0
0
536.2201
536.2201
536.2201
536.2201
536.2201
536.2201
536.2201
536.2201
536.2201
536.2201
536.2201
536.2201
536.2201
536.2201
536.2201
536.2201
536.2201
536.2201
536.2201
536.2201
536.2201
536.2201
536.2201
536.2201
536.2201
536.2201
536.2201
0
0
0
0
0
0
0
0
0
0
0
0
0
0
0
0
0
0
0
0
536.2201
536.2201
0
0
0
0
0
0
0
0
0
0
0
0
0
0
0
0
0
0
0
0
0
0
536.2201
536.2201
536.2201
536.2201
536.2201
536.2201
536.2201
536.2201
0
0
0
0
0
0
536.2201
536.2201
536.2201
536.2201
536.2201
536.2201
536.2201
536.2201
536.2201
536.2201
0
0
0
0
0
0
0
0
536.2201
536.2201
536.2201
536.2201
536.2201
381.92334
381.92334
381.92334
381.92334
381.92334
381.92334
381.92334
381.92334
0
0
536.2201
536.2201
0
536.2201
536.2201
0
536.2201
536.2201
0
536.2201
536.2201
0
536.2201
536.2201
0
536.2201
536.2201
0
536.2201
536.2201
0
536.2201
536.2201
0
536.2201
536.2201
0
536.2201
536.2201
0
536.2201
381.92334
536.2201
381.92334
381.92334
0
536.2201
536.2201
536.2201
536.2201
0
536.2201
536.2201
0
0
536.2201
536.2201
536.2201
536.2201
536.2201
536.2201
536.2201
536.2201
0
0
0
0
0
0
0
0
0
0
0
0
0
536.2201
536.2201
536.2201
536.2201
536.2201
536.2201
0
0
0
0
0
536.2201
536.2201
0
0
0
0
0
0
0
0
0
0
536.2201
536.2201
536.2201
536.2201
536.2201
536.2201
536.2201
536.2201
536.2201
536.2201
536.2201
0
0
0
0
0
0
536.2201
536.2201
536.2201
536.2201
536.2201
536.2201
536.2201
536.2201
536.2201
536.2201
0
0
0
0
0
0
0
0
0
0
536.2201
0
0
0
0
0
0
0
0
0
0
0
536.2201
536.2201
536.2201
536.2201
0
0
0
536.2201
536.2201
536.2201
536.2201
536.2201
0
0
0
0
536.2201
536.2201
8.4391234
0
56.451172
)


808
(
0
0
0
0
411.8157
411.8157
411.8157
411.8157
411.8157
411.8157
279.02749
31.429562
0
21.681425
411.8157
411.8157
411.8157
411.8157
411.8157
49.621908
411.8157
14.701787
0
99.83276
42.048643
411.8157
290.60872
353.12616
25.479383
410.94419
9.3418334
22.842479
9.0939052
11.5645
38.988453
301.52306
411.8157
43.03722
12.881304
119.29878
21.440973
0
0
0
0
0
0
0
0
0
0
0
0
0
0
0
0
0
0
0
0
0
0
0
0
0
0
0
0
0
0
0
0
0
0
0
0
0
0
0
0
0
0
0
0
0
0
0
0
0
27.239898
24.805111
27.80667
24.919597
0
0
0
0
0
0
0
0
0
0
0
0
0
0
0
0
0
0
0
0
0
27.99661
25.304163
0
29.125676
0
0
0
0
0
0
0
411.8157
411.8157
411.8157
411.8157
411.8157
411.8157
411.8157
0
411.8157
0
411.8157
0
411.8157
0
411.8157
0
411.8157
0
0
0
411.8157
411.8157
411.8157
0
411.8157
0
0
0
0
411.8157
411.8157
411.8157
411.8157
411.8157
411.8157
411.8157
411.8157
0
0
0
0
0
0
0
0
0
0
0
0
411.8157
411.8157
411.8157
411.8157
411.8157
411.8157
0
411.8157
0
411.8157
0
411.8157
0
411.8157
0
411.8157
0
411.8157
0
411.8157
0
411.8157
0
411.8157
0
411.8157
0
0
0
0
0
0
0
0
0
411.8157
411.8157
411.8157
411.8157
411.8157
411.8157
0
411.8157
0
411.8157
0
411.8157
0
0
411.8157
411.8157
0
0
0
0
0
0
0
0
0
0
0
0
0
0
0
0
0
0
0
0
0
0
0
411.8157
411.8157
411.8157
0
0
0
411.8157
411.8157
411.8157
0
0
0
411.8157
411.8157
411.8157
0
0
0
411.8157
411.8157
411.8157
0
0
0
0
0
0
0
0
0
411.8157
411.8157
411.8157
411.8157
411.8157
411.8157
0
0
0
411.8157
411.8157
411.8157
0
0
0
0
0
0
411.8157
411.8157
411.8157
411.8157
411.8157
411.8157
411.8157
411.8157
411.8157
411.8157
411.8157
411.8157
411.8157
411.8157
0
0
0
0
0
0
0
0
0
0
411.8157
411.8157
411.8157
0
0
0
0
0
411.8157
0
411.8157
411.8157
411.8157
0
411.8157
411.8157
411.8157
0
411.8157
411.8157
411.8157
0
411.8157
411.8157
411.8157
0
411.8157
411.8157
411.8157
0
411.8157
411.8157
411.8157
0
411.8157
411.8157
411.8157
0
411.8157
411.8157
411.8157
0
411.8157
411.8157
411.8157
0
411.8157
411.8157
411.8157
0
411.8157
411.8157
411.8157
0
0
411.8157
411.8157
411.8157
411.8157
411.8157
411.8157
411.8157
411.8157
0
0
411.8157
411.8157
411.8157
411.8157
0
0
0
0
411.8157
411.8157
411.8157
411.8157
411.8157
411.8157
411.8157
411.8157
0
0
0
0
0
0
0
411.8157
411.8157
411.8157
411.8157
411.8157
411.8157
411.8157
411.8157
411.8157
0
0
0
0
0
0
0
0
0
0
0
0
0
0
0
0
0
0
0
0
0
0
0
0
0
0
0
0
0
411.8157
411.8157
411.8157
411.8157
411.8157
411.8157
411.8157
411.8157
411.8157
411.8157
411.8157
411.8157
471.50949
471.50949
0
0
0
0
0
0
0
0
0
0
471.50949
471.50949
411.8157
411.8157
411.8157
411.8157
0
0
0
0
0
0
0
0
0
0
0
0
0
0
0
0
0
0
0
0
411.8157
411.8157
411.8157
411.8157
411.8157
411.8157
411.8157
411.8157
411.8157
411.8157
411.8157
411.8157
411.8157
411.8157
411.8157
411.8157
411.8157
411.8157
411.8157
411.8157
411.8157
411.8157
0
0
0
0
0
0
0
0
0
0
0
0
411.8157
411.8157
411.8157
411.8157
411.8157
411.8157
411.8157
411.8157
411.8157
411.8157
411.8157
411.8157
411.8157
411.8157
411.8157
411.8157
411.8157
411.8157
411.8157
411.8157
411.8157
411.8157
411.8157
411.8157
411.8157
411.8157
411.8157
0
0
0
0
0
0
0
0
0
0
0
0
0
0
0
0
0
0
0
0
411.8157
411.8157
0
0
0
0
0
0
0
0
0
0
0
0
0
0
0
0
0
0
0
0
0
0
411.8157
411.8157
411.8157
411.8157
411.8157
411.8157
411.8157
411.8157
0
0
0
0
0
0
411.8157
411.8157
411.8157
411.8157
411.8157
411.8157
411.8157
411.8157
411.8157
411.8157
0
0
0
0
0
0
0
0
411.8157
411.8157
411.8157
411.8157
411.8157
471.50949
471.50949
471.50949
471.50949
471.50949
471.50949
471.50949
471.50949
0
0
411.8157
411.8157
0
411.8157
411.8157
0
411.8157
411.8157
0
411.8157
411.8157
0
411.8157
411.8157
0
411.8157
411.8157
0
411.8157
411.8157
0
411.8157
411.8157
0
411.8157
411.8157
0
411.8157
411.8157
0
411.8157
471.50949
411.8157
471.50949
471.50949
0
411.8157
411.8157
411.8157
411.8157
0
411.8157
411.8157
0
0
411.8157
411.8157
411.8157
411.8157
411.8157
411.8157
411.8157
411.8157
0
0
0
0
0
0
0
0
0
0
0
0
0
411.8157
411.8157
411.8157
411.8157
411.8157
411.8157
0
0
0
0
0
411.8157
411.8157
0
0
0
0
0
0
0
0
0
0
411.8157
411.8157
411.8157
411.8157
411.8157
411.8157
411.8157
411.8157
411.8157
411.8157
411.8157
0
0
0
0
0
0
411.8157
411.8157
411.8157
411.8157
411.8157
411.8157
411.8157
411.8157
411.8157
411.8157
0
0
0
0
0
0
0
0
0
0
411.8157
0
0
0
0
0
0
0
0
0
0
0
411.8157
411.8157
411.8157
411.8157
0
0
0
411.8157
411.8157
411.8157
411.8157
411.8157
0
0
0
0
411.8157
411.8157
0
0
69.844562
)


808
(
0
0
0
0
284.42858
284.42858
284.42858
284.42858
284.42858
284.42858
172.29541
30.683553
136.86726
7.407854
284.42858
284.42858
284.42858
284.42858
284.42858
254.70566
284.42858
17.348025
37.149302
178.52066
192.09655
284.42858
272.06485
258.47968
83.264557
284.42858
9.1294275
29.006231
0
0
50.926865
284.42858
284.42858
57.82719
16.810231
284.42858
7.5610456
0
0
0
0
0
1.0518652
1.6305539
4.6366965
1.8364546
1.0138463
1.1686796
1.2084608
3.053991
2.6266723
0.77410672
0.67277062
13.053587
13.053587
4.1893134
1.1807229
1.0903427
2.512447
1.4481576
2.8916488
2.0689105
1.1381619
0.97612821
1.1958455
1.1292912
1.565763
1.6387993
2.6297707
1.286543
1.7614934
1.843647
3.6069346
5.6706391
6.100811
3.0888031
2.3312588
4.8158315
5.1542318
1.1523414
0.87420975
0.99486976
1.0116639
0.52849706
0.89509516
0.95345787
19.33373
9.9163286
14.768205
13.33813
13.053587
13.053587
1.2382054
2.2313557
3.4280869
1.0959099
1.2957952
1.3922014
1.4570639
2.3354756
1.9822587
2.074779
13.053587
13.053587
3.6622582
4.0654725
4.3446642
1.1083414
1.0512329
1.0623062
0.63986399
21.553348
16.191933
0.77359257
25.298157
13.053587
13.053587
13.053587
13.053587
3.1667153
13.053587
13.053587
284.42858
284.42858
284.42858
284.42858
284.42858
284.42858
284.42858
13.053587
284.42858
13.053587
284.42858
13.053587
284.42858
13.053587
284.42858
13.053587
284.42858
2.4029
13.053587
4.6985961
284.42858
284.42858
284.42858
13.053587
284.42858
13.053587
13.053587
13.053587
13.053587
284.42858
284.42858
284.42858
284.42858
284.42858
284.42858
284.42858
284.42858
13.053587
13.053587
13.053587
13.053587
1.3031226
1.8532524
3.1139168
2.0849944
13.053587
13.053587
3.6907506
13.053587
284.42858
284.42858
284.42858
284.42858
284.42858
284.42858
13.053587
284.42858
13.053587
284.42858
13.053587
284.42858
13.053587
284.42858
13.053587
284.42858
13.053587
284.42858
13.053587
284.42858
13.053587
284.42858
13.053587
284.42858
13.053587
284.42858
1.7333186
1.0632861
1.1940415
1.0525282
0.99866875
2.2278648
5.9875263
13.053587
13.053587
284.42858
284.42858
284.42858
284.42858
284.42858
284.42858
13.053587
284.42858
13.053587
284.42858
13.053587
284.42858
13.053587
13.053587
284.42858
284.42858
13.053587
13.053587
13.053587
13.053587
13.053587
13.053587
13.053587
6.0758892
3.9940277
2.4786622
4.3649121
1.5497344
2.2031236
13.053587
4.7491866
13.053587
13.053587
13.053587
13.053587
13.053587
13.053587
13.053587
13.053587
284.42858
284.42858
284.42858
13.053587
13.053587
13.053587
284.42858
284.42858
284.42858
13.053587
13.053587
13.053587
284.42858
284.42858
284.42858
13.053587
13.053587
13.053587
284.42858
284.42858
284.42858
1.9623179
1.3804709
1.1159401
13.053587
13.053587
13.053587
2.5190609
13.053587
13.053587
284.42858
284.42858
284.42858
284.42858
284.42858
284.42858
13.053587
13.053587
13.053587
284.42858
284.42858
284.42858
13.053587
13.053587
13.053587
13.053587
13.053587
13.053587
284.42858
284.42858
284.42858
284.42858
284.42858
284.42858
284.42858
284.42858
284.42858
284.42858
284.42858
284.42858
284.42858
284.42858
13.053587
13.053587
13.053587
13.053587
13.053587
13.053587
13.053587
13.053587
13.053587
13.053587
284.42858
284.42858
284.42858
13.053587
13.053587
13.053587
13.053587
13.053587
284.42858
13.053587
284.42858
284.42858
284.42858
13.053587
284.42858
284.42858
284.42858
13.053587
284.42858
284.42858
284.42858
13.053587
284.42858
284.42858
284.42858
13.053587
284.42858
284.42858
284.42858
13.053587
284.42858
284.42858
284.42858
13.053587
284.42858
284.42858
284.42858
13.053587
284.42858
284.42858
284.42858
13.053587
284.42858
284.42858
284.42858
13.053587
284.42858
284.42858
284.42858
13.053587
284.42858
284.42858
284.42858
13.053587
13.053587
284.42858
284.42858
284.42858
284.42858
284.42858
284.42858
284.42858
284.42858
13.053587
13.053587
284.42858
284.42858
284.42858
284.42858
13.053587
13.053587
13.053587
13.053587
284.42858
284.42858
284.42858
284.42858
284.42858
284.42858
284.42858
284.42858
1.4653187
1.6477543
2.6412552
2.346339
13.053587
4.3790424
5.1986709
284.42858
284.42858
284.42858
284.42858
284.42858
284.42858
284.42858
284.42858
284.42858
13.053587
13.053587
13.053587
13.053587
13.053587
13.053587
13.053587
13.053587
13.053587
13.053587
13.053587
13.053587
13.053587
13.053587
1.5218849
1.3490967
1.1444883
1.0092397
1.1489062
1.1023174
0.93981631
1.9568671
3.0151457
4.2576423
5.0089024
13.053587
13.053587
13.053587
13.053587
284.42858
284.42858
284.42858
284.42858
284.42858
284.42858
284.42858
284.42858
284.42858
284.42858
284.42858
284.42858
524.72754
524.72754
13.053587
13.053587
13.053587
13.053587
13.053587
13.053587
13.053587
13.053587
13.053587
13.053587
524.72754
524.72754
284.42858
284.42858
284.42858
284.42858
13.053587
13.053587
13.053587
13.053587
13.053587
13.053587
13.053587
13.053587
13.053587
13.053587
13.053587
13.053587
13.053587
13.053587
13.053587
13.053587
13.053587
13.053587
13.053587
13.053587
284.42858
284.42858
284.42858
284.42858
284.42858
284.42858
284.42858
284.42858
284.42858
284.42858
284.42858
284.42858
284.42858
284.42858
284.42858
284.42858
284.42858
284.42858
284.42858
284.42858
284.42858
284.42858
13.053587
13.053587
13.053587
13.053587
13.053587
13.053587
13.053587
13.053587
13.053587
13.053587
13.053587
13.053587
284.42858
284.42858
284.42858
284.42858
284.42858
284.42858
284.42858
284.42858
284.42858
284.42858
284.42858
284.42858
284.42858
284.42858
284.42858
284.42858
284.42858
284.42858
284.42858
284.42858
284.42858
284.42858
284.42858
284.42858
284.42858
284.42858
284.42858
3.3729912
5.2330899
2.8518256
3.1482359
1.7419799
1.8711765
1.9587881
2.6817704
13.053587
13.053587
5.6775243
13.053587
13.053587
13.053587
13.053587
13.053587
13.053587
13.053587
13.053587
13.053587
284.42858
284.42858
13.053587
13.053587
13.053587
13.053587
13.053587
13.053587
13.053587
13.053587
1.5326071
2.2234647
1.2315469
1.6836748
1.2046507
1.1662763
13.053587
13.053587
13.053587
13.053587
3.5700027
2.9327574
5.0404654
13.053587
284.42858
284.42858
284.42858
284.42858
284.42858
284.42858
284.42858
284.42858
13.053587
13.053587
13.053587
13.053587
13.053587
13.053587
284.42858
284.42858
284.42858
284.42858
284.42858
284.42858
284.42858
284.42858
284.42858
284.42858
13.053587
13.053587
13.053587
13.053587
13.053587
13.053587
13.053587
13.053587
284.42858
284.42858
284.42858
284.42858
284.42858
524.72754
524.72754
524.72754
524.72754
524.72754
524.72754
524.72754
524.72754
13.053587
13.053587
284.42858
284.42858
13.053587
284.42858
284.42858
13.053587
284.42858
284.42858
13.053587
284.42858
284.42858
13.053587
284.42858
284.42858
13.053587
284.42858
284.42858
13.053587
284.42858
284.42858
13.053587
284.42858
284.42858
13.053587
284.42858
284.42858
13.053587
284.42858
284.42858
13.053587
284.42858
524.72754
284.42858
524.72754
524.72754
13.053587
284.42858
284.42858
284.42858
284.42858
13.053587
284.42858
284.42858
13.053587
13.053587
284.42858
284.42858
284.42858
284.42858
284.42858
284.42858
284.42858
284.42858
13.053587
13.053587
13.053587
13.053587
13.053587
13.053587
13.053587
1.1846044
1.0906407
2.5228105
3.5621513
13.053587
13.053587
284.42858
284.42858
284.42858
284.42858
284.42858
284.42858
13.053587
13.053587
13.053587
13.053587
13.053587
284.42858
284.42858
13.053587
13.053587
13.053587
13.053587
13.053587
13.053587
13.053587
13.053587
13.053587
13.053587
284.42858
284.42858
284.42858
284.42858
284.42858
284.42858
284.42858
284.42858
284.42858
284.42858
284.42858
13.053587
13.053587
13.053587
13.053587
13.053587
13.053587
284.42858
284.42858
284.42858
284.42858
284.42858
284.42858
284.42858
284.42858
284.42858
284.42858
4.3990683
3.7419923
2.1073117
2.3588048
13.053587
13.053587
13.053587
13.053587
13.053587
13.053587
284.42858
13.053587
13.053587
13.053587
13.053587
1.7496015
1.53684
1.4006659
13.053587
13.053587
4.1819965
5.8329521
284.42858
284.42858
284.42858
284.42858
13.053587
13.053587
13.053587
284.42858
284.42858
284.42858
284.42858
284.42858
13.053587
13.053587
13.053587
13.053587
284.42858
284.42858
5.5128737
12.98931
71.72561
)

)


// ************************************************************************* //
