/*--------------------------------*- C++ -*----------------------------------*\
  =========                 |
  \\      /  F ield         | OpenFOAM: The Open Source CFD Toolbox
   \\    /   O peration     | Website:  https://openfoam.org
    \\  /    A nd           | Version:  8
     \\/     M anipulation  |
\*---------------------------------------------------------------------------*/
/*   Windows 32 and 64 bit porting by blueCAPE: http://www.bluecape.com.pt   *\
|  Based on Windows porting (2.0.x v4) by Symscape: http://www.symscape.com   |
\*---------------------------------------------------------------------------*/
FoamFile
{
    version     2.0;
    format      ascii;
    class       scalarListList;
    location    "constant/vegetation";
    object      F;
}
// * * * * * * * * * * * * * * * * * * * * * * * * * * * * * * * * * * * * * //


346
(

812
(
0.021733862
0.02497382
0.00036388628
0.00082871756
0.0021605821
3.2828263e-05
0.00062659438
0.0012354438
0.0081860933
8.5517981e-05
3.9662771e-06
0.00010050525
6.4337576e-05
0.00046993038
6.3465016e-06
6.3867696e-05
5.7581792e-05
0.00036675437
0.0018398403
0.00046154793
8.3372217e-05
0.0034832455
0.00019429799
0.0010402361
0.00024748923
0.00012446699
0.0007188102
0.0037401388
0.00061057807
0.0026588415
0.00050938064
0.00035016443
0.0018368791
2.9780242e-05
3.7985568e-05
6.4862201e-05
4.1290377e-05
1.5249913e-05
9.8536891e-05
0.00034790264
2.0594971e-05
0.00013182262
0.00060240682
0.0057777198
0.00082302343
0.00029383645
0.00081073539
0.0010477131
0.0028700379
0.0011359014
0.0015709874
0.00057670224
0.0052068867
0.0074429164
0.011121615
0.0085292345
0.00021112121
0.00040717707
0.000160195
0.00016385809
5.2185272e-05
0.00012065418
0.00077602667
0.00033780149
0.0005994195
0.0029502609
0.00062942438
0.00096112471
0.0010966309
0.00070660171
0.00032069634
0.00054980904
0.00021734633
0.0004619553
0.00021249141
0.00017053859
8.6275329e-05
0.00019854109
0.00038050477
0.00083082063
0.00063796392
0.00097083941
0.00035735621
0.00046588547
0.00034790601
0.00035748811
0.00044576619
0.00035138048
0.0013957027
0.0004941469
0.0031993288
0.0018522039
0.0022182549
0.0006372886
0.00085161781
0.00064202611
0.00057901566
0.00085137031
0.00062441583
0.0013222096
0.0011173724
0.0014564519
0.0015964121
0.0011538035
0.0015587596
0.00027377975
0.00019981031
0.00026245771
0.00029374954
0.00044580417
0.0003271963
0.00061619657
0.00071940333
0.00058455363
0.00065910094
0.00050672423
0.00054672431
0.0011786618
0.00087014547
0.0010410674
0.00078829782
0.00090695323
0.00092767857
0.0002781803
0.00021936158
0.00027717352
0.00043476394
0.00036563861
0.0003477412
0.0007794912
0.00057225303
0.00080915601
0.0016764635
0.0025287349
0.0019067687
0.0014537867
0.0015490432
0.0012533207
0.0015237962
0.00084809699
0.0012919355
0.00050125406
0.00056898357
0.00038910729
0.00026726246
0.00024693722
0.00018736623
0.0028360431
0.0028358857
0.0054152011
0.0042376049
0.0036365705
0.0022346249
0.0028579987
0.00209846
0.001106684
0.0016860039
0.001156846
0.00082229626
0.00061710384
0.00085044794
0.00021537364
0.00018290516
0.00024319988
0.00012762509
0.00015342766
0.00011844207
0.00070432114
0.0013171523
0.00091750986
0.0010826591
0.00047068462
0.00021881462
0.00025799477
0.00027256029
0.00013421377
0.00017421108
0.00013853041
0.0010109179
0.0011976295
0.00089981751
0.00053631095
0.00066022881
0.00065602455
0.00035163446
0.00046989568
0.00046281116
0.0021830338
0.00051107491
0.0013996248
0.00013729842
5.0917675e-05
0.00016687155
0.0030796947
0.001413761
0.0033964422
0.0002488322
0.00013130272
0.00037890259
1.8437285e-05
8.7144811e-06
2.5561794e-05
5.875085e-05
9.7287086e-05
8.9658869e-05
0.00016838507
3.9901506e-05
0.00011714743
0.00032849238
0.00040003462
0.00044002016
0.00031198285
0.00055745672
0.00087701799
0.00019097808
0.00034092341
0.00026293608
8.1122623e-05
0.00036450043
0.00024495954
0.0010473456
0.0016311384
0.0026239159
0.00020962788
0.00097412602
0.00059664746
3.0158367e-05
5.6646479e-05
4.1627212e-05
1.1482768e-05
4.5039887e-05
3.3858483e-05
6.416135e-05
7.0515191e-05
8.1690558e-05
2.8352607e-05
6.0790978e-05
8.3515621e-05
0.00036238911
0.00046429992
0.00045015657
8.3805615e-05
0.00010511543
0.00011010203
0.00035218826
0.00040521099
0.00042957285
0.00030200823
0.00037893416
0.00035176066
8.5086904e-05
0.00011299108
0.00011209289
1.2714441e-05
6.2430044e-05
2.151307e-05
0.0029482386
0.002248176
0.0019957368
0.0038550552
0.004192881
0.0040997831
0.003628175
0.0022846423
0.0033675232
0.00039541288
0.00085445814
0.00059701333
0.0011101459
0.0014436464
0.00091599035
7.4557725e-05
7.3101736e-05
5.5056086e-05
9.1870026e-05
0.00013901841
0.00010654548
0.00017890902
9.8347876e-05
0.00013446127
4.9142221e-05
0.00017794278
0.00014302794
0.00014208685
6.3564156e-05
0.0091107566
0.024183802
0.023367836
0.038951096
0.015223333
0.012083246
0.029781799
0.016602495
0.024895566
0.071247206
0.072341115
0.06740208
7.0823344e-05
0.0016170479
0.0011088554
6.9743862e-05
0.00085790051
0.0015294746
0.00024440631
0.0019593423
0.00026313026
8.8108787e-05
0.0011185451
6.5505741e-05
5.784887e-05
0.00019057631
0.00023840963
0.00026246499
0.00025008481
0.00017302116
0.00012324564
6.6805219e-05
0.00010862937
0.00018475385
0.00021663129
0.0002581963
0.00022768839
0.0022237886
0.0013422341
0.00013128755
0.00014171303
0.0015558452
0.00031750504
0.00030120458
0.00022445417
0.0013578021
0.00028594911
0.00017371148
0.00017378052
0.00012050835
0.0001097271
0.00016153521
7.2812323e-05
0.00012108235
0.00020225801
0.0006276067
0.0001382816
4.7920435e-05
6.1523937e-05
5.1687474e-05
9.0877168e-05
0.0013365121
0.000311776
0.00026706856
0.00019579186
0.00039074229
0.00025297899
0.00017115229
0.00016626565
0.0018104121
0.00043651639
0.00067722132
0.00081217716
0.00015557129
0.00020782509
0.00016869502
0.0001598184
0.00015137497
0.00022404344
0.00019170549
0.00018093798
0.00016661458
0.00017136228
0.0002095887
0.00026253471
0.00020964345
0.00020040956
0.00025831272
0.00020651563
0.00014209714
0.00015567326
0.00012872423
8.919711e-05
9.9226221e-05
0.00013895087
0.00010341395
0.00011576754
7.9740431e-05
7.0805849e-05
5.7002078e-05
8.21066e-05
6.9673813e-05
9.1707632e-05
9.5079182e-05
8.0620113e-05
0.00023125423
0.00018999981
0.00016509303
0.00013944816
0.00012315658
0.00020584554
0.00017326803
0.0001653757
0.00015048133
0.00015930721
0.00020640189
0.00025015289
0.00020040548
0.00018277271
0.00023939605
0.00019223084
0.0018033208
6.5610617e-05
0.0021198217
0.00031758677
0.00040860478
0.00040919009
0.00031202632
0.00038578093
0.00040167382
0.00024644162
0.00027900978
0.00031021162
0.00026730394
0.00036501391
0.00033791389
0.00010459823
0.00014670638
0.00011230558
0.00018034609
0.0002502644
0.00021868264
0.00015806931
0.00014877899
0.00018992107
0.00030081276
0.00040062885
0.00038205546
0.00028371293
0.00030175051
0.00035749258
0.00023641284
0.00031982781
0.00026480765
0.00055029876
0.00067276712
0.00055127881
0.00043233461
0.00038849891
0.00030493449
0.00031181166
0.00011893808
5.3577853e-05
2.6223488e-05
4.8325433e-05
6.754162e-05
0.00010035889
9.6328626e-05
0.00022652743
0.00027424313
0.00025112078
8.6634246e-05
0.00017171781
0.00017118138
7.993935e-05
8.9189026e-05
9.3707388e-05
0.00020997868
0.00020963748
0.00022942361
0.00028258518
0.00029860423
0.00032470424
8.6329329e-05
0.00010606563
0.00010989669
8.6301607e-05
0.00011269041
0.00011149018
6.6166514e-05
0.00012528057
0.00013772154
0.0001185799
0.000325225
0.00031420664
0.00029288562
0.00035852182
0.00043878804
0.00039276927
0.00013226926
0.00018082635
0.00013721017
0.00014136293
0.00018581069
0.00013953741
6.5584913e-05
0.015144778
0.0074320357
0.0075586574
0.0049152423
0.029158581
1.4442243e-05
2.3556614e-05
1.6219049e-05
3.5368311e-05
2.331189e-05
3.8331396e-05
2.150899e-05
0.00016295301
0.00017155212
0.000155878
2.5877908e-06
2.2652401e-05
4.4643146e-06
6.0441794e-06
9.0011809e-06
6.0824593e-05
8.4151363e-06
5.6923981e-05
6.6177906e-06
0.00017156462
0.00017921375
0.00011746186
7.6701297e-05
0.00011031409
7.1832568e-05
0.00015907415
0.00016854967
0.00016721431
0.00017634952
0.00015742064
1.2156025e-05
4.9629393e-06
1.9676742e-05
1.7953217e-05
5.4990844e-06
2.6846003e-05
4.4117933e-05
3.2410637e-05
2.5103696e-05
7.8134221e-06
5.290014e-05
4.1267548e-05
1.971893e-05
7.2105238e-06
0.00015479285
0.00015410128
0.00016338794
0.00017976029
0.0001874256
9.0874474e-06
1.6006696e-05
0.00016573837
0.00015734908
0.00012834328
0.00015221578
0.000105163
9.1535052e-05
9.8662459e-05
6.6799686e-05
8.5796806e-05
0.00016021058
0.00016428444
0.00017215373
0.00016390169
0.000161196
0.00013776068
0.000145707
0.00016112459
0.00016910205
0.00023813969
0.010999257
0.011898043
0.040477726
0.019402272
0.029079765
0.00036191857
0.0002909339
0.00035760682
0.00032108146
5.1630575e-05
3.2285229e-05
5.3041508e-05
3.1369152e-05
5.4100721e-05
3.3322026e-05
5.4682708e-05
3.296614e-05
4.7339613e-05
2.6933919e-05
2.8299317e-05
4.9229562e-05
2.8488979e-05
4.6801279e-05
2.9976913e-05
0.00021206939
0.00021341031
0.00020045768
0.00019437819
0.00020589557
0.00020949125
0.00042529406
0.00018892533
0.00018702737
0.00028405824
0.00019197049
0.00019337079
0.00010652674
0.00012199548
0.00010812315
0.00016713262
0.00010037562
0.0001105786
9.6622255e-05
0.00018364973
0.00017894801
0.0001621097
0.00017120768
0.00017153605
0.00017786745
0.00016893729
0.00017538826
0.00014369651
0.00015211528
0.00018848811
0.00018913827
0.00012250888
0.00011198975
0.00017582475
0.00017862738
0.00024663872
0.00013952822
0.00014971598
0.0001794293
0.00017755194
0.00018696173
0.00018276468
6.9214462e-05
1.10548e-05
7.419903e-05
1.0076088e-05
7.2338264e-05
1.1178146e-05
7.4674191e-05
1.0825584e-05
7.060319e-06
9.6110314e-06
7.0383745e-05
1.0485131e-05
0.00020024482
0.00020424737
0.00019687948
0.00019478427
0.00020349351
0.0001919842
0.00019810569
0.0001858913
0.00019125278
0.00027027845
0.0002797454
0.00028215325
0.00027600292
0.00019525052
0.00019304882
0.00026822035
0.00019930512
8.72669e-05
0.00019718627
9.2225768e-05
8.7307625e-05
0.00016812868
0.00016869191
0.0001806737
9.0121477e-05
0.00016478549
0.00019742138
8.7507994e-05
0.00019253118
0.00025875938
7.1168799e-05
5.0107911e-05
3.2959882e-05
1.0818265e-05
7.2968949e-05
5.4107625e-05
3.0325006e-05
1.048478e-05
0.00015678308
0.00018017894
7.3662619e-05
5.2958057e-05
3.3317128e-05
1.1180458e-05
7.4450327e-05
5.4678838e-05
3.2265329e-05
1.1060943e-05
4.8730221e-05
3.0935927e-05
7.8665954e-06
2.9297834e-05
9.0193798e-06
6.7738053e-05
5.1309213e-05
9.5543431e-06
6.4483435e-05
3.1253375e-05
1.0055555e-05
0.00020942023
0.00020246038
0.00020380229
0.00021341061
0.00019215473
0.00020551294
0.00018616089
0.00019821374
0.00020174274
0.00020138042
0.00021206845
0.00019789993
0.00019032858
0.0001826164
0.00020863235
0.00022604385
0.00021652692
0.00023022078
0.00017566322
0.00034669388
0.00024515609
0.00023779251
0.00026268408
0.00027356284
0.0001855903
0.00025836235
0.00018856226
0.00018947919
0.0001869738
0.0001892057
0.00018354872
0.00018894066
0.00028055306
0.00019024844
0.00028649158
0.0001960156
0.00019880549
0.00020322699
8.9568996e-05
0.00013592161
9.1632313e-05
0.000114287
8.6390118e-05
8.7315709e-05
8.5114069e-05
0.00010850638
0.00012303637
8.1201811e-05
0.00018923097
0.00019604315
0.00018332333
0.00015031202
0.00016108411
0.00017205374
0.00017832287
0.00017298721
0.00017805853
0.00018114392
0.00016481607
0.00017892709
0.00017017417
0.00013402393
0.00015918159
0.00018725016
0.00018775062
0.00013650797
0.00017738003
0.00012139124
0.00017411226
0.00026093837
0.00017712787
0.00022038052
0.0001452039
0.00016284325
0.00025742719
0.00013025805
0.00016059616
0.00027799267
0.00018510895
0.00017973414
0.00018953464
0.00019240124
0.00018022525
0.0035570521
0.0075542529
0.0048833792
0.001564351
0.0004276313
0.0022213471
0.00040356633
0.003800027
0.0019008594
0.0018707721
0.0033330971
0.022805996
0.0013446062
0.0023743819
0.0040966039
0.00076426759
0.0019055778
0.0011098252
0.00091937917
0.0072791115
0.0076996768
0.0025789296
0.00067133733
0.0013317074
0.0014232218
0.0048054681
)


1576
(
0.011666388
3.2421268e-06
4.9923314e-05
9.4666113e-07
0.0001995211
3.8938727e-06
0.0001943116
1.8265645e-05
0.00026785966
0.0015815214
0.00080626804
0.00024529976
0.00027611612
0.00070965618
2.3946826e-05
5.4426273e-05
0.00025322212
0.00081633348
2.5727586e-05
1.9571373e-06
1.3647796e-05
8.1256538e-06
1.6769492e-06
1.1968184e-05
2.7018627e-05
7.0917654e-06
5.4744314e-05
0.00012047167
8.8267991e-06
6.6393364e-05
0.0010436346
0.001028181
0.00054039986
0.0010197847
8.7754689e-05
0.00048467932
0.00015324581
6.0880144e-05
0.00035736719
0.00020840377
0.00023384688
1.0263754e-05
1.5201683e-05
2.8390973e-05
1.7308062e-05
0.00011931897
0.00014553179
0.00031919042
0.00028610452
0.00014322683
0.00019542995
0.00047377669
0.00018582977
0.00041474266
0.00058249223
0.001031481
0.00054768639
0.00046744532
0.00028963797
0.00040730244
0.00056355405
0.00058142315
0.00053496063
0.00025196524
0.00016244119
0.0001868555
0.00016375249
0.00030536855
0.00023175884
0.00029241552
0.00031120085
0.00025718147
0.00031215986
0.00012785284
0.00021398501
0.00054096951
0.0007544616
0.00049320452
2.1181785e-05
1.8772058e-05
1.3437014e-05
1.8278571e-05
1.6172147e-05
3.1272764e-05
2.4037274e-05
2.7829269e-05
2.0078546e-05
2.0779548e-05
2.4079223e-05
0.00038109536
0.00046952432
0.00037068035
0.00024055768
0.00021197941
0.00027111845
0.00038258968
0.00045398701
0.00037770354
0.00026344158
0.00034560001
0.00031615868
0.00017152728
0.00021447575
0.0001964829
3.7855604e-05
4.4079042e-05
3.3715048e-05
4.1527691e-05
1.5857558e-05
9.8284819e-06
1.1441716e-05
1.0576735e-05
8.5948572e-06
7.5938431e-06
0.00011446537
0.00020036878
0.00015101775
0.00038241112
0.00034272068
0.00034562841
2.4014555e-05
3.7883389e-05
2.8920638e-05
0.00013449394
0.00010470775
0.00011828211
0.00011299021
0.00016736015
0.00012960698
0.00031467378
0.00045107517
0.00034918128
0.00069919973
0.00058997138
0.00072539678
0.00043692022
0.0003506118
0.00036943516
0.0006636135
0.00053842855
0.00062382156
0.00014335158
0.00013432744
0.00014687431
0.00021720359
0.00019807922
0.00017868266
1.4357986e-05
1.5989995e-05
9.7049471e-06
2.7199182e-06
8.14464e-06
4.1352469e-06
1.1420447e-06
3.9351573e-06
1.1652415e-05
4.7138765e-06
1.4110403e-05
5.4147547e-05
1.4147682e-05
4.2051537e-05
0.00069436258
0.00019937698
0.00053279887
0.0007647366
0.00078642562
0.00083509973
7.07309e-05
3.1957346e-05
9.4016427e-05
1.2345382e-05
1.1432296e-05
1.3752418e-05
2.2987329e-06
5.9016299e-06
6.8931436e-06
5.9649836e-06
9.0218813e-06
6.530533e-06
1.4286264e-06
5.1250683e-06
4.5019648e-06
5.7552722e-06
2.1221754e-05
1.7238082e-05
1.1107438e-05
2.6348598e-05
3.3079858e-05
0.00093114841
0.00086947364
0.0007540577
0.00013101526
0.00025115967
0.00036562085
0.0010241711
0.00091108025
0.00089147429
4.3552599e-05
0.00017673301
0.00012747587
0.00071268738
0.00074890463
0.00069847414
0.00063979002
0.00058628353
0.00063953606
0.00073418179
0.00066968747
0.00098138381
1.6379195e-05
1.9021174e-05
1.36567e-05
1.9632559e-05
3.6221178e-05
2.389442e-05
4.4172233e-05
3.6219096e-05
2.9460082e-05
8.9008448e-05
0.00010530353
6.980667e-05
7.3712474e-05
4.4341982e-05
5.5067835e-05
0.00065777768
0.00038600549
0.00054337866
0.00071714879
0.00058047205
0.00073500323
0.00026590859
0.00027747611
0.00020289602
0.0010381966
0.00051607447
0.00054685048
0.00058703661
0.00059670713
0.012959917
0.0084149025
0.0004401335
0.0081563913
0.0045851806
0.01375683
0.017487234
0.098125923
0.012414989
0.053720805
0.016223065
0.018775894
0.058931746
0.012841526
0.00012537078
0.00014533579
0.00017660786
0.0001603289
0.00010648418
0.00013570491
0.00011098708
0.00013202155
0.00015318169
0.00027795586
0.00014867669
9.7448818e-05
2.5146489e-05
3.8874833e-05
1.7989908e-05
1.7126555e-05
1.6759496e-05
1.4014303e-05
1.4900327e-05
1.0553469e-05
9.1536587e-06
3.0796102e-05
2.8089268e-05
3.4599776e-05
5.3854541e-05
3.8568422e-05
4.9523998e-05
1.7592461e-05
1.7610602e-05
2.2060067e-05
1.6041709e-05
2.0002189e-05
6.009044e-06
2.2335563e-05
0.00027395332
0.00014126557
0.0003043799
1.0351764e-05
5.3893928e-06
0.00026629285
5.6163947e-05
8.3985338e-05
0.00014161618
0.00030524641
0.00031368527
1.3474365e-05
4.5172095e-06
3.7331824e-05
8.6619777e-05
2.8250167e-06
4.4646737e-06
2.0222476e-05
2.001867e-05
3.1567055e-05
3.6882347e-05
2.4418742e-05
2.6769008e-05
3.045091e-05
1.7574147e-05
1.8445694e-05
1.3467242e-05
1.2284624e-05
7.8003228e-05
7.2501779e-05
1.5177109e-05
2.0102774e-05
8.5459282e-06
7.5140856e-06
6.0043333e-05
7.5673636e-05
2.8075393e-06
2.2447753e-06
3.6833178e-05
0.00015087686
8.8129487e-05
0.00010961954
0.00016875005
0.00012243737
1.3715084e-05
6.1833386e-06
0.00023631333
3.6963362e-05
1.1609483e-05
1.2627269e-06
8.8117556e-06
8.5900232e-06
0.00015672965
6.4514566e-05
1.9431769e-05
1.8389222e-05
1.4894152e-05
1.7758227e-05
1.0388534e-06
7.1345938e-06
1.3611449e-05
8.9427487e-06
3.1652151e-05
4.616441e-05
7.1011723e-05
5.3092443e-05
1.9582012e-05
1.9597669e-05
2.8307658e-05
2.1562591e-05
1.912871e-05
2.1149145e-05
2.022855e-05
3.0850738e-05
4.8497408e-05
2.1574881e-05
2.7950627e-05
2.2736822e-05
1.6640066e-05
1.9612773e-05
1.5259038e-05
1.069263e-05
5.8512248e-05
7.7910572e-05
5.8230135e-05
2.2499396e-05
3.9777704e-05
2.0121468e-05
1.7378536e-05
1.9207654e-05
1.88692e-05
1.6269417e-05
1.2992458e-05
1.6013544e-05
1.5651034e-05
1.6967729e-05
1.1836796e-05
1.2180517e-05
1.0622021e-05
7.6550862e-06
2.7459711e-05
3.5657206e-05
3.1371992e-05
4.0426818e-05
3.8963581e-05
6.5290725e-05
6.5427427e-05
3.5031747e-05
6.0685353e-05
4.4022131e-05
1.7527106e-05
1.9678234e-05
1.9694882e-05
1.7658988e-05
2.4548999e-05
2.5589952e-05
1.3967107e-05
2.3443555e-05
1.8320414e-05
7.081831e-05
0.00016833164
6.3681362e-05
1.0799419e-05
1.7766547e-05
1.6988619e-05
5.9709159e-05
0.0001317556
6.8343255e-05
0.00014031518
7.2103521e-05
7.0246807e-05
8.1529617e-06
3.5705601e-06
6.5596787e-06
1.8237601e-06
1.8951091e-05
9.6712703e-05
0.00015337085
0.00013545272
0.00013455434
8.1753002e-05
8.9734891e-05
0.0001153384
9.5366981e-05
0.00010197988
0.00015735066
0.00013325581
0.0001304199
4.6342199e-06
1.810895e-05
1.5076854e-06
3.8184688e-06
1.2572255e-05
2.5386301e-05
0.00013549064
0.00010804469
1.0680891e-06
3.1460121e-06
5.1969969e-06
6.0822263e-06
2.0958372e-05
2.0051007e-05
2.0674829e-05
1.9685482e-05
3.4920656e-05
2.7727041e-05
4.0520318e-05
5.0633367e-05
2.2405329e-05
2.0661203e-05
2.6187928e-05
2.5410531e-05
2.2987573e-05
2.4762006e-05
1.782382e-05
1.640862e-05
1.8813657e-05
1.9177576e-05
1.3721053e-05
1.5158784e-05
1.2388172e-05
1.2200441e-05
8.6888063e-05
7.252185e-05
6.7553339e-05
7.3952268e-05
0.00017712727
0.00012221893
0.00012983362
0.00012305938
0.00011407971
0.00010791844
0.00014849255
0.00011998167
0.00012538726
1.199285e-05
1.7322931e-05
2.2770162e-05
2.8226834e-05
9.8803351e-06
1.1623858e-05
1.2681285e-05
6.4200899e-06
4.098314e-05
7.7752682e-05
7.7685689e-05
6.3843678e-05
0.00010305115
6.6792185e-05
0.00010028802
8.8941796e-05
6.3466498e-05
9.5355979e-05
8.0467206e-05
6.3276548e-05
8.4539124e-05
6.5785779e-05
9.280707e-05
8.8765713e-05
0.00010304901
7.2399643e-05
0.00010178192
9.645944e-05
7.1712155e-05
9.9510433e-05
0.028807763
0.065268854
0.00039973875
0.00061143049
0.00030630253
0.00078708204
0.00041911543
0.00096490605
0.00048963557
0.0002500708
0.00014222012
0.00010114724
8.9930088e-05
0.00015826659
0.00020970818
0.00023831175
0.00022606839
0.00064136938
0.00010515038
9.4968758e-05
0.00035813767
9.9156994e-05
0.00016020335
0.00046776018
0.00011208403
5.5141413e-05
0.00011595803
0.00012724851
0.00035911051
0.00027258648
0.00025623423
0.00017923176
0.00095547636
0.00023645584
0.00015994544
0.00017627473
0.0010427689
0.0012701476
0.00012061906
0.00012729497
0.00010848153
7.6785486e-05
8.5501254e-05
0.00011359467
8.7003335e-05
9.7264558e-05
6.8836199e-05
6.1631443e-05
7.094744e-05
6.1800125e-05
7.769687e-05
7.9887928e-05
6.9310945e-05
0.0001335795
0.00017514288
0.00014720037
0.00015036591
0.00013881824
0.00019242891
0.00017505043
0.00016118596
0.00016144827
0.00017125197
0.00019560597
0.00024893403
0.000204594
0.00018797898
0.00024018907
0.00019879589
0.00051069059
0.00030246314
0.00038298659
8.7665448e-05
0.00011472512
0.0001004123
0.0001425846
0.00018973162
0.00016709875
0.00012654729
0.0001297848
0.00014804352
0.00027183638
0.00031378725
0.00030138907
0.00019913649
0.00021275301
0.00023717978
0.00021744007
0.00025458437
0.0002579941
0.00026777169
0.00029195682
0.00030722784
0.00059877793
0.00021898435
9.8504628e-05
0.00018832832
0.00027947877
0.00036473742
0.00033219124
0.0005288192
0.00039140376
0.00044253697
0.00031637112
0.00028116622
0.00030844048
0.00044368135
0.00040900736
0.00045194418
0.00048149506
0.00053683379
0.00049165546
0.00040849236
0.00036245735
0.00030227878
0.00032992058
0.0003995563
0.00042578377
0.00043536158
0.00050460719
0.00045366221
0.00046807987
0.00044389464
0.0019908438
0.0016647851
0.028842786
0.023097081
0.014856079
0.014652682
0.0071262221
8.6162735e-05
7.7200689e-05
3.0692972e-05
6.5378109e-05
1.5307004e-05
6.5723625e-05
6.5260176e-06
1.1046569e-05
1.9203771e-05
1.669828e-05
2.2369999e-05
7.9051667e-06
7.287439e-06
8.7262073e-06
1.3211064e-05
9.927505e-06
1.183518e-05
5.4196762e-05
4.4819592e-05
4.106413e-06
2.5537684e-05
3.8498405e-05
7.9277967e-05
3.9579867e-05
7.4213461e-05
3.3733503e-05
3.817349e-05
5.1355077e-06
8.6570852e-06
9.1755758e-06
1.0089523e-05
2.9632227e-05
2.9437119e-05
2.6032509e-05
2.7320167e-05
2.0294109e-05
1.7798834e-05
2.9265011e-05
2.4447348e-05
2.8863583e-05
1.2498213e-05
1.1147369e-05
8.97032e-06
2.2907177e-05
1.9675535e-05
1.5190387e-05
2.4050738e-05
6.9336421e-06
9.0648913e-06
2.2651485e-05
2.0734801e-05
1.3465918e-05
3.2267755e-07
7.108869e-06
3.0171239e-07
6.3479939e-06
6.5503276e-06
7.5889322e-06
1.6944826e-05
1.3350162e-05
1.1125035e-06
5.1826799e-05
1.226887e-05
2.4231862e-05
2.6687836e-06
2.9490394e-06
1.7424652e-05
4.0575548e-05
4.111898e-05
9.3226993e-07
3.1530466e-06
1.8414579e-05
1.8738802e-06
5.5856173e-06
6.9385857e-06
3.985318e-05
3.7072261e-05
3.6182081e-05
4.058483e-05
3.3665792e-05
2.2914428e-05
1.9953207e-06
9.1911307e-06
1.4554981e-05
2.3630439e-06
5.272577e-06
6.9911552e-06
3.620714e-05
1.9399314e-05
3.0468833e-05
7.858652e-06
1.0908525e-05
1.6896713e-05
1.200516e-05
4.6326211e-06
7.9813535e-06
1.1206857e-05
3.4308683e-05
1.6380373e-05
3.4142835e-05
1.5870253e-05
2.9353895e-05
3.34982e-05
2.7170638e-05
9.3776635e-06
1.8243464e-05
3.3904731e-05
2.033238e-05
3.1812177e-05
1.3729277e-05
1.7033137e-05
1.1959109e-05
5.4161877e-06
1.2306564e-05
4.1063656e-05
4.1262082e-05
2.016283e-05
2.4007894e-05
3.8960578e-05
3.7983035e-05
3.8156195e-05
3.9611909e-05
3.0600545e-05
2.7001945e-05
1.6759619e-05
2.2635836e-05
1.6211066e-05
2.6683678e-05
2.6722804e-05
6.9933829e-06
9.057937e-06
8.0582639e-06
9.9664771e-06
9.6148945e-06
1.4820901e-05
1.4911782e-05
8.9342515e-06
1.3313164e-05
1.0644974e-05
2.1752588e-06
5.0071388e-07
2.6358456e-06
4.6320318e-06
4.2454255e-05
5.9309157e-06
5.7891898e-07
2.6768099e-05
2.9150743e-06
8.578426e-06
1.3603831e-05
7.0091139e-06
1.0744452e-05
4.3539402e-05
2.6356019e-05
4.2005578e-05
9.6556386e-07
3.8239958e-07
1.1425912e-06
5.7670339e-06
8.4095043e-07
6.1178234e-06
6.7096367e-06
1.3487026e-06
3.3329984e-06
2.9934841e-06
4.1280098e-06
2.4668993e-06
2.7556986e-06
7.896349e-07
2.3133447e-06
5.1210417e-06
1.364774e-06
5.8724123e-06
6.8313532e-06
1.6583662e-06
6.3011359e-06
1.0559442e-05
1.1982994e-05
3.3464486e-06
5.7363912e-06
7.9071447e-06
9.2799098e-06
1.0302128e-05
1.3024887e-05
3.4510235e-05
2.9636192e-05
3.4468162e-05
2.9002687e-05
3.1127495e-05
2.4431489e-05
3.2502029e-05
2.8304866e-05
2.4579557e-05
2.2513053e-05
2.1595247e-05
1.5032373e-05
3.3339171e-05
2.9506928e-05
2.40269e-05
2.4483637e-05
3.2642076e-05
2.8188824e-05
1.4422571e-05
1.6996607e-05
1.2825888e-05
1.1765992e-05
4.3686854e-07
1.4716464e-06
1.2958627e-06
6.7395028e-07
1.6917863e-06
1.967116e-06
6.5643542e-06
8.1779977e-06
6.6492235e-06
7.8211089e-06
1.0350623e-05
2.3046572e-05
1.7014452e-05
1.4379703e-05
1.8394041e-05
1.6886591e-05
1.083206e-05
2.3379434e-05
2.0030316e-05
5.543565e-06
9.5588141e-06
8.1925665e-06
9.1061885e-06
1.6756689e-05
2.2210212e-05
1.5174113e-05
2.1577095e-05
1.1701577e-05
9.7492277e-06
1.6092312e-06
3.1047831e-06
1.8977184e-06
2.7909732e-06
2.2340142e-06
2.063945e-06
4.3829918e-06
4.0732505e-06
3.50432e-06
3.3860714e-06
2.5142217e-06
2.9197786e-06
6.1597731e-06
5.678619e-06
6.1834995e-06
2.7071417e-06
2.7063352e-06
1.6062162e-06
4.6472624e-06
4.8068199e-06
2.7711117e-06
0.10421792
0.081882214
0.045856466
7.0079032e-05
4.5232506e-05
7.3012352e-05
4.3154429e-05
5.503113e-05
3.0299602e-05
4.9695038e-05
3.3588131e-05
0.00023033778
0.00023878952
0.00019867958
0.00018712923
0.00022481054
0.00022537398
0.00021854349
0.00021807822
0.00016589672
0.00014630679
0.00020728928
0.00021541969
0.00022022224
0.00022032842
0.00021609192
0.00021578929
0.00014106362
0.0001601666
0.00011253619
0.0001166548
0.00012842728
0.00010203963
0.00018783866
0.00017572625
0.00017231561
0.00018611089
0.00018487827
0.00017072828
0.00020111563
0.00020938916
0.00015008426
0.00016416721
0.0001720587
0.00015767793
0.00017389839
0.00018635771
0.00019865897
0.00020186398
1.0756851e-05
9.0431439e-05
8.9751776e-05
1.6508133e-05
9.6009195e-05
1.3588369e-05
0.00019513121
0.00017957486
0.00017877352
0.00019952852
0.00016663632
0.00011354813
8.1415338e-06
5.4929193e-05
8.2870502e-05
9.1175199e-06
6.1398637e-05
1.2432149e-05
0.00016933896
0.0002124652
0.00021101335
0.00020268572
0.00016854823
0.00015696833
0.00021217409
0.00021452694
0.00021027421
0.00020874984
0.00021131742
0.00020922043
0.00020901773
0.00020490041
6.9197163e-05
0.00011228247
0.00017604396
0.00011984214
0.00016678403
0.00010384526
0.00011720344
0.00015505553
7.7255227e-05
0.00020167278
0.00016028152
0.00019835609
0.00016665109
0.0001547625
0.00020115352
0.00020231619
0.00015961143
0.00019907227
0.00019622321
0.0001536821
0.00018907324
0.00021178139
0.00018000367
0.00020490812
0.00012756409
0.00016768294
0.00019215941
0.00014935415
9.5650128e-05
6.558675e-05
4.4134924e-05
1.5676712e-05
9.9433873e-05
7.0464377e-05
4.020926e-05
1.4714107e-05
0.00019083187
0.00018581862
0.00018819832
0.00019505142
0.0001517134
0.00013400159
2.427566e-05
3.9872785e-05
7.5574806e-05
6.0433166e-05
2.7178225e-05
1.0168693e-05
6.8328281e-05
4.4610447e-05
3.6945421e-05
1.1281267e-05
0.00022034241
0.00022041008
0.00022385369
0.00025193442
0.00019173736
0.00020985578
0.00018022775
0.00017544826
0.00016383673
3.7242078e-05
6.4804464e-05
0.00021437312
0.00022297729
0.00021528633
0.00022420874
0.00020626089
0.00022055946
0.000220111
0.00020429432
0.00016011821
0.00018261198
0.0001240344
0.00014132981
0.00019927105
0.00019639543
0.00020677575
0.00022098082
0.00021889854
0.00021106706
0.00021876056
0.00021070455
0.00021836786
0.00020901711
0.00020828306
0.00021707837
8.2478693e-05
0.00011945251
0.00013280139
0.00015102575
0.00017657381
9.4843735e-05
0.0001230208
0.00012957469
0.00010530639
0.00014014368
0.00014236967
8.5864721e-05
9.1949478e-05
0.00019051404
0.00019923506
0.00017866677
0.0001634684
0.0001513772
0.00017296357
0.0001585868
0.00018632398
0.00019934882
0.00019853272
0.00018226748
0.00015670497
0.00016787838
0.00019021337
0.00019069841
0.00021519975
0.00019895273
0.00014072519
0.00013636076
0.00015428618
0.0001780248
0.00018614528
0.00017804946
0.00014360722
0.0001635745
0.00017322418
0.00016133478
0.0001981264
0.00018611755
0.00014898614
0.0012799916
0.00061377996
0.0048831812
0.0013689195
0.0031084757
0.006250839
0.0084388309
0.010251507
0.0049948683
0.014472294
0.022052275
1.2242609e-05
8.2953468e-06
1.3695005e-05
7.4017095e-06
2.2025397e-05
1.1852823e-05
1.9527138e-05
1.3375705e-05
9.2421485e-06
5.0058199e-06
8.2672896e-06
5.5042407e-06
3.1574467e-05
2.1614809e-05
3.5522733e-05
1.9201949e-05
0.00014140907
0.00015244766
5.4017308e-05
2.0510639e-05
1.7584866e-05
3.8506629e-05
3.6846617e-05
2.8486022e-05
3.0834396e-05
1.9862728e-05
2.3155439e-05
3.2061362e-05
3.4661408e-05
1.5348869e-05
3.1214213e-06
2.1242325e-05
2.20303e-06
3.5182346e-06
5.0579891e-06
1.4025585e-05
1.2641601e-06
1.0927831e-05
1.9723244e-06
5.7083874e-06
4.8471686e-05
1.9546813e-05
1.7881129e-05
2.2215873e-05
2.8547073e-05
1.3856468e-05
3.9876039e-05
4.4826131e-05
1.700179e-05
1.1029146e-05
9.3282803e-06
2.7729867e-06
1.8977063e-05
1.5385071e-05
6.6430992e-06
2.4682502e-06
3.8501016e-05
3.3568413e-05
2.4777761e-05
3.1604306e-05
2.4846853e-05
1.0509252e-05
3.9691065e-06
1.7322343e-05
1.5096308e-05
4.4801994e-06
1.2892986e-05
1.0055163e-05
5.5294664e-06
1.4652518e-06
1.1446232e-05
7.9903096e-06
6.019289e-06
1.7545973e-06
2.8021022e-05
7.2474842e-06
4.8973147e-05
1.7032908e-05
6.437042e-06
0.00014564658
4.9309212e-05
7.54102e-05
1.9529458e-05
2.331288e-05
1.4555941e-05
1.6734987e-05
4.1219995e-05
4.272191e-05
3.7010433e-05
3.5370066e-05
3.501783e-05
2.7202443e-05
2.5975368e-05
2.9480498e-05
3.3013242e-05
2.1609292e-05
2.3590187e-05
2.7455069e-05
1.6436512e-05
2.1598852e-05
2.5160537e-05
2.6296732e-05
6.1721473e-05
2.9269914e-05
0.00051658394
0.0010854529
0.0016093175
0.0010394233
0.00044054786
0.00010686196
0.0003489419
0.00083692897
0.00039077716
0.0023708701
0.00046600448
0.003234172
0.00032057713
0.00066384742
0.00037166742
1.9547446e-07
5.7631174e-06
7.1044819e-06
3.996652e-06
2.5861536e-07
3.1270794e-06
1.3223174e-05
6.5659964e-06
7.7321137e-06
4.3729896e-06
1.516525e-06
1.9913111e-06
5.2511648e-06
4.8582462e-06
1.7337404e-06
7.8570938e-06
8.8104907e-06
8.8430711e-06
7.3332386e-06
8.3858468e-06
5.9767647e-06
5.5294964e-06
8.1284215e-06
9.5910626e-06
8.8248869e-06
8.1930228e-06
7.8750588e-06
4.4278356e-06
2.2631876e-06
7.6807548e-06
7.4808273e-07
2.7911841e-07
8.2149612e-07
2.7379449e-06
3.9406493e-06
3.4274859e-06
6.8806349e-06
8.2255726e-06
8.6265532e-06
1.2379014e-06
1.9006197e-06
1.3597994e-06
2.8992206e-06
2.4531793e-06
2.9694005e-06
8.9102563e-06
9.5516306e-06
9.1806019e-06
6.9654055e-06
7.9679152e-06
7.570964e-06
4.6852226e-06
4.5431861e-06
5.0982799e-06
6.4280038e-06
6.5629447e-06
7.054068e-06
5.0834351e-06
6.071727e-06
5.5788419e-06
6.2644511e-07