/*--------------------------------*- C++ -*----------------------------------*\
  =========                 |
  \\      /  F ield         | OpenFOAM: The Open Source CFD Toolbox
   \\    /   O peration     | Website:  https://openfoam.org
    \\  /    A nd           | Version:  8
     \\/     M anipulation  |
\*---------------------------------------------------------------------------*/
/*   Windows 32 and 64 bit porting by blueCAPE: http://www.bluecape.com.pt   *\
|  Based on Windows porting (2.0.x v4) by Symscape: http://www.symscape.com   |
\*---------------------------------------------------------------------------*/
FoamFile
{
    version     2.0;
    format      ascii;
    class       labelListList;
    location    "constant/vegetation";
    object      globalFaceFaces;
}
// * * * * * * * * * * * * * * * * * * * * * * * * * * * * * * * * * * * * * //


346
(

812
(
443
472
848
849
850
851
852
853
854
855
856
857
858
859
860
861
862
863
864
865
866
867
868
869
870
871
872
873
874
875
876
877
878
879
880
881
882
883
884
885
886
887
888
889
890
891
892
893
894
895
896
897
898
899
900
901
902
903
904
905
906
907
908
909
910
911
912
913
914
915
916
917
918
919
920
921
922
923
924
925
926
927
928
929
930
931
932
933
934
935
936
937
938
939
940
941
942
943
944
945
946
947
948
949
950
951
952
953
954
955
956
957
958
959
960
961
962
963
964
965
966
967
968
969
970
971
972
973
974
975
976
977
978
979
980
981
982
983
984
985
986
987
988
989
990
991
992
993
994
995
996
997
998
999
1000
1001
1002
1003
1004
1005
1006
1007
1008
1009
1010
1011
1012
1013
1014
1015
1016
1017
1018
1019
1020
1021
1022
1023
1024
1025
1026
1027
1028
1029
1030
1031
1032
1033
1034
1035
1036
1037
1038
1039
1040
1041
1042
1043
1044
1045
1046
1047
1048
1049
1050
1051
1052
1053
1054
1055
1056
1057
1058
1059
1060
1061
1062
1063
1064
1065
1066
1067
1068
1069
1070
1071
1072
1073
1074
1075
1076
1077
1078
1079
1080
1081
1082
1083
1084
1085
1086
1087
1088
1089
1090
1091
1092
1093
1094
1095
1096
1097
1098
1099
1100
1101
1102
1103
1104
1105
1106
1107
1108
1109
1110
1111
1112
1113
1114
1115
1116
1117
1118
1119
1120
1121
1122
1123
1124
1125
1126
1127
1128
1129
1130
1134
1135
1141
1143
1144
1147
1150
1172
1175
1541
1542
1544
1545
1546
1547
1548
1549
1553
1554
1557
1558
1559
1560
1571
1572
1573
1574
1575
1576
1577
1578
1579
1580
1586
1587
1588
1589
1591
1592
1593
1594
1595
1596
1597
1598
1599
1600
1601
1602
1603
1604
1605
1606
1607
1608
1609
1610
1611
1612
1620
1621
1622
1623
1624
1625
1626
1627
1628
1629
1633
1634
1635
1636
1653
1654
1655
1656
1657
1658
1659
1660
1661
1662
1663
1664
1665
1666
1667
1668
1669
1670
1671
1672
1673
1674
1675
1676
1677
1678
1679
1680
1681
1682
1683
1684
1685
1686
1687
1688
1689
1690
1691
1692
1693
1694
1695
1696
1697
1698
1699
1700
1711
1725
1739
1740
1741
1742
1743
1744
1745
1746
1747
1748
1749
1750
1751
1752
1753
1754
1755
1756
1757
1758
1759
1760
1761
1762
1763
1764
1765
1766
1767
1768
1769
1771
1772
1773
1774
1775
1776
1777
1842
1843
1844
1845
1846
1847
1848
1849
1850
1851
1852
1853
1854
1855
1856
1857
1858
1859
1860
1861
1862
1863
1864
1865
1866
1867
1868
1869
1870
1898
1899
1900
1909
1910
1911
1918
1919
1920
1921
1922
1923
1924
1925
1926
1927
1949
1970
1972
1974
2394
2396
2397
2398
2399
2400
2401
2402
2405
2406
2426
2441
2442
2444
2446
2453
2454
2456
2457
2458
2463
2464
2473
2474
2480
2482
2484
2486
2487
2488
2491
2505
2506
2508
2509
2510
2517
2518
2520
2521
2522
2523
2524
2525
2526
2531
2532
2533
2534
2535
2536
2537
2543
2544
2545
2546
2567
2568
2576
2579
2580
2583
2584
2585
2606
2607
2608
2609
2611
2614
2621
2627
2652
2655
2656
2657
3070
3071
3072
3073
3074
3075
3076
3077
3078
3079
3080
3081
3082
3083
3085
3086
3087
3088
3089
3090
3091
3092
3093
3094
3095
3098
3107
3110
3111
3112
3113
3114
3115
3116
3119
3120
3121
3122
3123
3124
3129
3132
3135
3136
3137
3138
3139
3140
3141
3142
3143
3144
3145
3146
3147
3148
3149
3150
3151
3152
3153
3154
3155
3156
3157
3158
3159
3160
3161
3163
3165
3166
3167
3168
3169
3170
3171
3172
3173
3175
3178
3179
3180
3181
3182
3183
3184
3185
3186
3188
3189
3190
3192
3197
3198
3199
3200
3201
3202
3203
3204
3205
3206
3211
3212
3213
3214
3215
3216
3217
3218
3223
3226
3231
3232
3233
3234
3235
3236
3237
3238
3240
3241
3242
3245
3246
3247
3248
3249
3250
3251
3252
3253
3254
3255
3256
3257
3258
3259
3260
3261
3262
3263
3265
3268
3269
3270
3271
3272
3273
3274
3275
3276
3277
3278
3295
3296
3297
3298
3299
3300
3304
3305
3306
3307
3308
3309
3310
3312
3313
3314
3317
3318
3319
3324
3325
3326
3327
3328
3329
3330
3331
3332
3341
3342
3347
3348
3353
3354
3355
3356
3357
3358
3359
3360
3361
3363
3364
3365
3366
3367
3368
3369
3370
3371
3372
3373
3374
3375
3376
3377
3378
3379
3380
3381
3389
3420
3422
3426
3427
3429
3430
3431
3433
3434
3435
3436
3442
3443
3444
3447
3449
3450
3451
3452
3454
3455
3457
3459
5348
5350
)


1576
(
1
849
850
851
852
853
854
855
856
857
858
859
860
861
862
864
865
866
867
868
869
870
871
872
873
874
875
876
877
878
879
880
881
882
883
884
885
886
887
888
889
891
892
894
895
896
897
898
899
900
901
902
903
904
905
906
907
918
919
920
921
922
923
924
925
926
927
928
929
930
931
932
933
934
935
936
937
938
940
941
942
943
944
945
946
947
948
949
950
951
952
953
954
955
956
969
970
971
972
973
974
975
976
977
978
979
980
981
984
985
986
987
988
989
990
991
992
994
995
997
998
999
1000
1001
1002
1003
1004
1005
1006
1007
1008
1009
1010
1011
1012
1018
1019
1020
1021
1022
1023
1024
1025
1026
1027
1028
1029
1030
1032
1033
1034
1035
1036
1037
1038
1039
1040
1041
1042
1043
1044
1045
1046
1047
1048
1049
1050
1051
1052
1053
1054
1055
1056
1057
1058
1059
1060
1061
1062
1063
1064
1065
1066
1067
1068
1069
1070
1071
1072
1073
1074
1075
1076
1077
1078
1079
1080
1081
1082
1083
1087
1088
1089
1096
1097
1098
1099
1100
1101
1102
1103
1104
1105
1106
1107
1108
1109
1110
1111
1112
1113
1114
1115
1116
1117
1118
1119
1120
1121
1122
1123
1124
1125
1126
1127
1128
1129
1130
1137
1139
1143
1145
1146
1148
1149
1150
1151
1172
1173
1174
1175
1176
1177
1178
1179
1180
1181
1182
1183
1188
1198
1199
1200
1201
1202
1204
1206
1221
1222
1223
1224
1225
1226
1227
1228
1230
1231
1232
1234
1235
1236
1237
1238
1240
1243
1245
1246
1247
1248
1249
1250
1251
1252
1253
1258
1259
1260
1261
1262
1267
1268
1269
1270
1277
1278
1279
1280
1281
1282
1283
1284
1285
1286
1287
1288
1289
1310
1311
1312
1313
1314
1315
1326
1327
1328
1329
1330
1331
1332
1333
1334
1335
1336
1337
1338
1339
1340
1341
1342
1343
1344
1345
1346
1347
1348
1349
1350
1351
1352
1353
1354
1355
1356
1357
1358
1359
1360
1361
1362
1363
1364
1365
1366
1367
1368
1369
1370
1371
1372
1373
1374
1375
1376
1377
1378
1379
1380
1381
1382
1383
1384
1385
1386
1387
1388
1389
1390
1391
1392
1393
1394
1395
1396
1397
1398
1399
1400
1401
1402
1403
1404
1405
1406
1407
1408
1409
1410
1411
1412
1414
1415
1416
1417
1418
1419
1420
1421
1422
1423
1424
1425
1426
1427
1428
1429
1430
1431
1432
1434
1435
1436
1437
1438
1439
1440
1441
1442
1443
1446
1447
1448
1449
1450
1451
1452
1453
1461
1462
1463
1464
1465
1466
1467
1468
1469
1470
1471
1472
1473
1474
1475
1476
1477
1478
1479
1480
1481
1482
1483
1484
1485
1486
1497
1498
1499
1500
1501
1502
1503
1504
1505
1506
1507
1508
1509
1510
1511
1512
1513
1514
1515
1516
1517
1521
1522
1523
1524
1525
1526
1529
1530
1531
1532
1533
1534
1535
1536
1537
1538
1539
1540
1541
1544
1545
1547
1548
1549
1559
1560
1571
1572
1573
1574
1576
1577
1578
1579
1580
1592
1593
1594
1595
1597
1598
1599
1600
1602
1603
1604
1605
1606
1607
1608
1609
1610
1611
1612
1635
1636
1653
1654
1655
1656
1657
1658
1659
1660
1661
1662
1664
1665
1666
1667
1668
1669
1670
1671
1672
1673
1674
1675
1676
1677
1678
1679
1680
1681
1682
1683
1684
1711
1725
1739
1743
1744
1745
1746
1747
1748
1749
1750
1751
1752
1753
1754
1755
1756
1757
1758
1759
1760
1775
1776
1777
1842
1843
1844
1845
1846
1847
1848
1852
1853
1854
1855
1856
1857
1864
1865
1866
1867
1868
1869
1870
1898
1899
1900
1921
1922
1923
1924
1925
1926
1927
1945
1946
1949
1970
1971
1972
1974
1980
1986
1987
1988
2006
2008
2009
2011
2029
2030
2032
2033
2034
2036
2037
2038
2040
2054
2055
2056
2062
2063
2064
2065
2066
2067
2068
2074
2075
2078
2079
2080
2081
2082
2083
2084
2085
2086
2087
2088
2089
2090
2109
2110
2111
2112
2113
2118
2119
2120
2121
2122
2135
2136
2137
2138
2139
2140
2141
2142
2143
2144
2145
2146
2147
2148
2149
2150
2151
2152
2153
2154
2155
2156
2157
2158
2159
2160
2161
2162
2163
2164
2165
2166
2167
2168
2169
2170
2171
2172
2173
2174
2175
2176
2177
2178
2179
2180
2181
2182
2183
2184
2185
2186
2187
2188
2189
2190
2191
2192
2193
2194
2195
2196
2197
2198
2199
2200
2201
2202
2204
2205
2206
2207
2208
2209
2210
2211
2212
2213
2214
2215
2216
2217
2218
2219
2220
2221
2222
2223
2224
2225
2226
2227
2228
2229
2230
2231
2232
2233
2234
2235
2237
2243
2244
2245
2246
2247
2248
2249
2250
2251
2252
2253
2254
2255
2257
2258
2259
2260
2261
2262
2263
2264
2267
2268
2269
2270
2271
2272
2273
2274
2275
2276
2277
2278
2279
2280
2281
2282
2283
2284
2285
2286
2287
2288
2289
2290
2291
2292
2293
2294
2295
2296
2297
2298
2308
2309
2310
2311
2312
2313
2314
2315
2316
2317
2318
2319
2320
2321
2322
2323
2324
2325
2326
2329
2330
2331
2332
2333
2334
2335
2336
2337
2338
2343
2344
2345
2346
2347
2348
2349
2350
2351
2352
2353
2354
2357
2358
2359
2360
2361
2362
2363
2364
2365
2366
2393
2394
2395
2396
2397
2398
2399
2400
2401
2402
2403
2404
2405
2406
2407
2408
2409
2410
2411
2412
2413
2414
2415
2416
2417
2418
2419
2420
2421
2422
2423
2424
2425
2426
2427
2428
2429
2430
2431
2432
2433
2434
2435
2436
2437
2438
2439
2440
2441
2442
2443
2444
2445
2446
2447
2448
2449
2450
2451
2452
2453
2454
2455
2456
2457
2458
2459
2460
2461
2462
2463
2464
2465
2466
2467
2468
2469
2470
2471
2472
2474
2475
2476
2477
2478
2479
2480
2481
2482
2483
2484
2485
2486
2488
2489
2490
2491
2492
2493
2494
2495
2496
2497
2498
2499
2500
2501
2502
2503
2504
2505
2506
2507
2508
2509
2510
2511
2512
2513
2514
2515
2516
2517
2518
2519
2520
2521
2522
2523
2524
2525
2526
2527
2528
2529
2530
2531
2532
2533
2534
2535
2536
2537
2539
2540
2541
2542
2547
2548
2549
2550
2551
2552
2553
2554
2555
2556
2557
2558
2559
2560
2561
2562
2563
2564
2565
2566
2568
2569
2570
2571
2572
2573
2574
2575
2576
2577
2578
2579
2580
2581
2582
2583
2584
2585
2586
2587
2588
2589
2590
2591
2592
2593
2594
2595
2596
2597
2598
2599
2600
2601
2602
2603
2604
2605
2610
2611
2612
2613
2614
2616
2617
2622
2625
2626
2628
2652
2653
2654
2655
2657
3074
3075
3076
3077
3078
3079
3080
3081
3082
3083
3084
3085
3086
3087
3088
3089
3092
3093
3097
3099
3100
3103
3104
3105
3106
3117
3118
3133
3134
3154
3155
3156
3157
3159
3161
3162
3163
3164
3165
3167
3174
3189
3193
3194
3195
3196
3208
3210
3211
3212
3213
3214
3215
3216
3217
3218
3219
3220
3227
3228
3232
3233
3234
3236
3237
3238
3239
3240
3241
3242
3243
3244
3245
3246
3248
3249
3250
3251
3252
3259
3266
3267
3279
3280
3281
3282
3283
3286
3287
3289
3290
3291
3292
3293
3294
3314
3315
3316
3320
3321
3322
3323
3329
3349
3387
3389
3422
3426
3427
3429
3431
3435
3436
3441
3444
3450
3451
3459
3460
3835
3836
3837
3838
3840
3841
3843
3845
3848
3849
3856
3857
3858
3859
3860
3866
3871
3893
3898
3899
3903
3907
3930
3931
3932
3942
3965
3966
3968
3970
3974
3975
3976
3977
3978
3979
3983
3984
3985
3992
3993
3994
3998
3999
4000
4004
4005
4006
4007
4008
4009
4010
4011
4012
4013
4014
4015
4016
4017
4018
4019
4020
4021
4022
4050
4063
4064
4954
4955
4956
4957
4979
4980
4981
4982
4983
4984
4985
4986
4987
4988
4989
4990
4995
5005
5006
5007
5008
5009
5011
5013
5028
5029
5030
5031
5032
5033
5034
5035
5036
5037
5039
5040
5041
5043
5044
5045
5047
5050
5052
5053
5054
5055
5056
5057
5058
5059
5064
5065
5066
5071
5072
5073
5074
5081
5082
5083
5084
5085
5086
5087
5088
5089
5090
5091
5092
5093
5114
5115
5116
5117
5118
5119
5130
5131
5132
5133
5134
5135
5136
5137
5138
5139
5140
5141
5142
5143
5144
5145
5146
5147
5148
5149
5150
5151
5152
5153
5154
5155
5156
5157
5158
5159
5160
5161
5162
5163
5164
5165
5166
5167
5168
5169
5170
5171
5172
5173
5174
5175
5176
5177
5178
5179
5180
5181
5182
5183
5184
5185
5186
5187
5188
5189
5190
5191
5192
5193
5194
5195
5196
5197
5198
5199
5200
5201
5202
5203
5204
5205
5206
5207
5208
5209
5210
5211
5212
5213
5214
5215
5217
5218
5219
5220
5221
5222
5223
5224
5225
5226
5227
5228
5229
5230
5231
5232
5233
5234
5235
5236
5237
5238
5239
5241
5242
5243
5244
5245
5246
5247
5248
5249
5250
5253
5254
5255
5256
5257
5258
5259
5260
5268
5269
5270
5271
5272
5273
5274
5275
5276
5277
5278
5279
5280
5281
5282
5283
5284
5285
5286
5287
5288
5289
5290
5291
5292
5293
5304
5305
5306
5307
5308
5309
5310
5311
5312
5313
5314
5315
5316
5317
5318
5319
5320
5321
5322
5323
5324
5328
5329
5330
5331
5332
5333
5336
5337
5338
5339
5340
5341
5342
5343
5344
5345
5346
5347
5418
6014
6026
)


902
(
1
443
848
849
850
851
852
853
854
855
856
857
858
859
860
861
862
863
864
865
866
867
868
869
870
871
872
873
874
875
876
877
878
879
880
881
882
883
884
885
886
887
888
889
890
891
892
893
894
895
896
897
898
899
900
901
902
903
904
905
906
907
908
909
910
911
912
913
914
915
916
917
918
919
920
921
922
923
924
925
926
927
928
929
930
931
932
933
934
935
936
937
938
939
940
941
942
943
944
945
946
947
948
949
950
951
952
953
954
955
956
957
958
959
960
961
962
963
964
965
966
967
968
969
970
971
972
973
974
975
976
977
978
979
980
981
982
983
984
985
986
987
988
989
990
991
992
993
994
995
996
997
998
999
1000
1001
1002
1003
1004
1005
1006
1007
1008
1009
1010
1011
1012
1013
1014
1015
1016
1017
1018
1019
1020
1021
1022
1023
1024
1025
1026
1027
1028
1029
1030
1031
1032
1033
1034
1035
1036
1037
1038
1039
1040
1041
1042
1043
1044
1045
1046
1047
1048
1049
1050
1051
1052
1053
1054
1055
1056
1057
1058
1059
1060
1061
1062
1063
1064
1065
1066
1067
1068
1069
1070
1071
1072
1073
1074
1075
1076
1077
1078
1079
1080
1081
1082
1083
1084
1085
1086
1087
1088
1089
1090
1091
1092
1093
1094
1095
1096
1097
1098
1099
1100
1101
1102
1103
1104
1105
1106
1107
1108
1109
1110
1111
1112
1113
1114
1115
1116
1117
1118
1119
1120
1121
1122
1123
1124
1125
1126
1127
1128
1129
1130
1137
1139
1143
1144
1146
1148
1150
1151
1172
1173
1175
1542
1544
1545
1546
1547
1548
1549
1553
1554
1557
1558
1559
1560
1571
1572
1573
1574
1575
1576
1577
1578
1579
1580
1586
1587
1588
1589
1591
1592
1593
1594
1595
1596
1597
1598
1599
1600
1601
1602
1603
1604
1605
1606
1607
1608
1609
1610
1611
1612
1620
1621
1622
1623
1624
1625
1626
1627
1628
1629
1633
1634
1635
1636
1653
1654
1655
1656
1657
1658
1659
1660
1661
1662
1663
1664
1665
1666
1667
1668
1669
1670
1671
1672
1673
1674
1675
1676
1677
1678
1679
1680
1681
1682
1683
1684
1685
1686
1687
1688
1689
1690
1691
1692
1693
1694
1695
1696
1697
1698
1699
1700
1711
1725
1739
1740
1741
1742
1743
1744
1745
1746
1747
1748
1749
1750
1751
1752
1753
1754
1755
1756
1757
1758
1759
1760
1761
1762
1763
1764
1765
1766
1767
1768
1769
1771
1772
1773
1774
1775
1776
1777
1842
1843
1844
1845
1846
1847
1848
1849
1850
1851
1852
1853
1854
1855
1856
1857
1858
1859
1860
1861
1862
1863
1864
1865
1866
1867
1868
1869
1870
1898
1899
1900
1909
1910
1911
1918
1919
1920
1921
1922
1923
1924
1925
1926
1927
1949
1970
1971
1972
1974
2366
2393
2394
2395
2396
2397
2398
2399
2400
2401
2402
2403
2404
2405
2406
2407
2408
2409
2410
2411
2412
2413
2414
2415
2416
2417
2418
2419
2420
2421
2423
2425
2426
2428
2431
2432
2438
2439
2440
2441
2442
2443
2444
2445
2446
2447
2448
2449
2450
2451
2452
2453
2455
2456
2457
2458
2459
2460
2461
2462
2463
2465
2466
2467
2468
2469
2470
2471
2472
2475
2476
2477
2478
2479
2481
2483
2485
2489
2490
2492
2493
2495
2496
2497
2498
2500
2501
2503
2504
2505
2506
2507
2508
2509
2510
2511
2512
2513
2514
2515
2516
2517
2518
2519
2520
2521
2522
2523
2524
2525
2526
2527
2528
2529
2530
2531
2532
2533
2534
2535
2536
2537
2539
2540
2541
2542
2547
2548
2549
2550
2551
2552
2553
2554
2555
2556
2557
2558
2559
2560
2561
2562
2563
2564
2565
2566
2569
2570
2571
2572
2573
2574
2577
2578
2579
2581
2582
2583
2588
2589
2590
2594
2595
2596
2597
2601
2602
2612
2613
2622
2625
2626
2652
2656
2657
3071
3074
3075
3076
3077
3078
3079
3080
3081
3082
3083
3084
3085
3087
3089
3090
3091
3094
3095
3096
3097
3099
3100
3101
3102
3103
3104
3105
3106
3107
3108
3109
3110
3112
3113
3114
3115
3116
3117
3118
3125
3126
3127
3128
3129
3130
3131
3132
3133
3134
3141
3142
3143
3154
3155
3156
3157
3158
3159
3160
3161
3162
3163
3164
3165
3167
3169
3171
3172
3173
3174
3175
3176
3177
3178
3180
3181
3184
3185
3186
3187
3188
3189
3190
3191
3192
3193
3195
3196
3198
3199
3200
3201
3207
3208
3209
3210
3211
3212
3213
3214
3215
3216
3217
3218
3219
3221
3222
3223
3224
3225
3226
3229
3230
3231
3232
3233
3234
3235
3236
3237
3238
3239
3240
3241
3242
3243
3244
3245
3246
3248
3249
3251
3252
3255
3256
3260
3261
3262
3263
3264
3265
3266
3267
3270
3274
3280
3281
3282
3283
3284
3285
3286
3288
3290
3292
3294
3296
3298
3299
3300
3301
3302
3303
3304
3305
3309
3310
3311
3312
3313
3314
3315
3316
3317
3318
3319
3320
3321
3322
3323
3324
3325
3333
3334
3335
3336
3337
3338
3339
3340
3341
3342
3343
3344
3345
3346
3347
3348
3349
3350
3351
3352
3361
3362
3363
3364
3371
3372
3377
3379
3387
3389
3422
3426
3427
3429
3431
3435
3436
3441
3450
3451
4954
4956
4957
4979
4980
6014
6026
)


673
(
443
444
472
848
849
850
851
852
853
854
855
856
857
858
859
860
861
862
863
864
865
866
867
868
869
870
871
872
873
874
875
876
877
878
879
880
881
882
883
884
885
886
887
888
889
890
891
892
893
894
895
896
897
898
899
900
901
902
903
904
905
906
907
908
909
910
911
912
913
914
915
916
917
918
919
920
921
922
923
924
925
926
927
928
929
930
931
932
933
934
935
936
937
938
939
940
941
942
943
944
945
946
947
948
949
950
951
952
953
954
955
956
957
958
959
960
961
962
963
964
965
966
967
968
969
970
971
972
973
974
975
976
977
978
979
980
981
982
983
984
985
986
987
988
989
990
991
992
993
994
995
996
997
998
999
1000
1001
1002
1003
1004
1005
1006
1007
1008
1009
1010
1011
1012
1013
1014
1015
1016
1017
1018
1019
1020
1021
1022
1023
1024
1025
1026
1027
1028
1029
1030
1031
1032
1033
1034
1035
1036
1037
1038
1039
1040
1041
1042
1043
1044
1045
1046
1047
1048
1049
1050
1051
1052
1053
1054
1055
1056
1057
1058
1059
1060
1061
1062
1063
1064
1065
1066
1067
1068
1069
1070
1071
1072
1073
1074
1075
1076
1077
1078
1079
1080
1081
1082
1083
1084
1085
1086
1087
1088
1089
1090
1091
1092
1093
1094
1095
1096
1097
1098
1099
1100
1101
1102
1103
1104
1105
1106
1107
1108
1109
1110
1111
1112
1113
1114
1115
1116
1117
1118
1119
1120
1121
1122
1123
1124
1125
1126
1127
1128
1129
1130
1132
1133
1134
1135
1136
1147
1175
1541
1542
1544
1545
1546
1547
1548
1549
1553
1554
1557
1558
1559
1560
1571
1572
1573
1574
1575
1576
1577
1578
1579
1580
1586
1587
1588
1589
1591
1592
1593
1594
1595
1596
1597
1598
1599
1600
1601
1602
1603
1604
1605
1606
1607
1608
1609
1610
1611
1612
1620
1621
1622
1623
1624
1625
1626
1627
1628
1629
1633
1634
1635
1636
1653
1654
1655
1656
1657
1658
1659
1660
1661
1662
1663
1664
1665
1666
1667
1668
1669
1670
1671
1672
1673
1674
1675
1676
1677
1678
1679
1680
1681
1682
1683
1684
1685
1686
1687
1688
1689
1690
1691
1692
1693
1694
1695
1696
1697
1698
1699
1700
1711
1725
1739
1740
1741
1742
1743
1744
1745
1746
1747
1748
1749
1750
1751
1752
1753
1754
1755
1756
1757
1758
1759
1760
1761
1762
1763
1764
1765
1766
1767
1768
1769
1771
1772
1773
1774
1775
1776
1777
1842
1843
1844
1845
1846
1847
1848
1849
1850
1851
1852
1853
1854
1855
1856
1857
1858
1859
1860
1861
1862
1863
1864
1865
1866
1867
1868
1869
1870
1898
1899
1900
1909
1910
1911
1918
1919
1920
1921
1922
1923
1924
1925
1926
1927
2393
2395
2396
2398
2399
2400
2401
2402
2421
2422
2423
2424
2441
2444
2446
2453
2454
2455
2456
2457
2458
2474
2479
2482
2504
2505
2506
2509
2510
2517
2518
2519
2520
2521
2522
2523
2524
2525
2526
2536
2567
2568
2573
2575
2576
2579
2580
2627
2628
2653
2654
2656
3071
3075
3076
3077
3078
3079
3080
3081
3082
3083
3084
3085
3086
3087
3088
3089
3097
3099
3100
3101
3102
3119
3120
3121
3122
3125
3144
3155
3156
3157
3158
3159
3160
3161
3163
3164
3165
3166
3167
3174
3194
3196
3197
3198
3199
3201
3202
3204
3208
3210
3213
3214
3216
3217
3218
3219
3220
3227
3228
3231
3232
3233
3234
3235
3236
3237
3238
3239
3240
3241
3242
3243
3244
3245
3246
3247
3248
3249
3250
3251
3252
3266
3267
3279
3281
3282
3283
3284
3285
3286
3287
3288
3289
3291
3293
3324
3325
3326
3327
3329
3333
3365
3389
3421
3422
3424
3426
3429
3430
3431
3433
3434
3441
3450
3454
3455
3493
4089
4090
4124
4125
5348
5349
5350
5374
5375
5380
5383
5385
5404
5419
)


814
(
443
848
849
850
851
852
853
854
855
856
857
858
859
860
861
862
863
864
865
866
867
868
869
870
871
872
873
874
875
876
877
878
879
880
881
882
883
884
885
886
887
888
889
890
891
892
893
894
895
896
897
898
899
900
901
902
903
904
905
906
907
908
909
910
911
912
913
914
915
916
917
918
919
920
921
922
923
924
925
926
927
928
929
930
931
932
933
934
935
936
937
938
939
940
941
942
943
944
945
946
947
948
949
950
951
952
953
954
955
956
957
958
959
960
961
962
963
964
965
966
967
968
969
970
971
972
973
974
975
976
977
978
979
980
981
982
983
984
985
986
987
988
989
990
991
992
993
994
995
996
997
998
999
1000
1001
1002
1003
1004
1005
1006
1007
1008
1009
1010
1011
1012
1013
1014
1015
1016
1017
1018
1019
1020
1021
1022
1023
1024
1025
1026
1027
1028
1029
1030
1031
1032
1033
1034
1035
1036
1037
1038
1039
1040
1041
1042
1043
1044
1045
1046
1047
1048
1049
1050
1051
1052
1053
1054
1055
1056
1057
1058
1059
1060
1061
1062
1063
1064
1065
1066
1067
1068
1069
1070
1071
1072
1073
1074
1075
1076
1077
1078
1079
1080
1081
1082
1083
1084
1085
1086
1087
1088
1089
1090
1091
1092
1093
1094
1095
1096
1097
1098
1099
1100
1101
1102
1103
1104
1105
1106
1107
1108
1109
1110
1111
1112
1113
1114
1115
1116
1117
1118
1119
1120
1121
1122
1123
1124
1125
1126
1127
1128
1129
1130
1133
1134
1135
1136
1141
1143
1144
1147
1175
1541
1544
1545
1546
1547
1548
1549
1553
1554
1557
1558
1559
1560
1571
1572
1573
1574
1575
1576
1577
1578
1579
1580
1586
1587
1588
1589
1591
1592
1593
1594
1595
1596
1597
1598
1599
1600
1601
1602
1603
1604
1605
1606
1607
1608
1609
1610
1611
1612
1620
1621
1622
1623
1624
1625
1626
1627
1628
1629
1633
1634
1635
1636
1653
1654
1655
1656
1657
1658
1659
1660
1661
1662
1663
1664
1665
1666
1667
1668
1669
1670
1671
1672
1673
1674
1675
1676
1677
1678
1679
1680
1681
1682
1683
1684
1685
1686
1687
1688
1689
1690
1691
1692
1693
1694
1695
1696
1697
1698
1699
1700
1711
1725
1739
1740
1741
1742
1743
1744
1745
1746
1747
1748
1749
1750
1751
1752
1753
1754
1755
1756
1757
1758
1759
1760
1761
1762
1763
1764
1765
1766
1767
1768
1769
1771
1772
1773
1774
1775
1776
1777
1842
1843
1844
1845
1846
1847
1848
1849
1850
1851
1852
1853
1854
1855
1856
1857
1858
1859
1860
1861
1862
1863
1864
1865
1866
1867
1868
1869
1870
1898
1899
1900
1909
1910
1911
1918
1919
1920
1921
1922
1923
1924
1925
1926
1927
1949
1972
1973
1974
2394
2396
2397
2398
2399
2400
2401
2402
2403
2404
2405
2406
2426
2437
2441
2442
2444
2445
2446
2448
2452
2453
2454
2456
2457
2458
2459
2460
2461
2462
2463
2464
2473
2474
2482
2484
2486
2487
2488
2491
2505
2506
2508
2509
2510
2517
2518
2521
2522
2523
2524
2525
2526
2528
2530
2531
2532
2533
2534
2535
2536
2537
2538
2543
2544
2545
2546
2567
2568
2576
2580
2581
2583
2584
2585
2587
2606
2607
2608
2609
2611
2614
2628
2652
2657
3070
3071
3072
3073
3074
3075
3076
3077
3078
3079
3080
3081
3083
3085
3086
3087
3088
3089
3090
3091
3092
3093
3094
3095
3096
3098
3107
3110
3111
3112
3113
3114
3116
3119
3120
3121
3122
3123
3124
3129
3132
3135
3136
3137
3138
3139
3140
3141
3142
3143
3144
3145
3146
3147
3148
3149
3150
3151
3152
3153
3154
3155
3156
3157
3158
3159
3160
3161
3163
3165
3166
3167
3168
3169
3170
3171
3172
3173
3175
3178
3179
3180
3181
3182
3183
3184
3185
3186
3188
3190
3192
3197
3198
3199
3200
3201
3202
3203
3204
3205
3206
3211
3212
3213
3214
3215
3216
3217
3218
3223
3226
3231
3232
3233
3234
3235
3236
3237
3238
3240
3241
3242
3244
3245
3246
3247
3248
3249
3250
3251
3252
3253
3254
3255
3256
3257
3258
3259
3260
3261
3262
3263
3265
3268
3269
3270
3271
3272
3273
3274
3275
3276
3277
3278
3295
3296
3297
3298
3299
3304
3305
3306
3307
3308
3309
3310
3312
3313
3314
3318
3319
3324
3325
3326
3327
3328
3329
3330
3331
3332
3341
3342
3347
3348
3353
3354
3355
3356
3357
3358
3359
3360
3361
3364
3365
3366
3367
3368
3369
3370
3371
3372
3373
3374
3375
3376
3377
3378
3379
3380
3381
3389
3422
3426
3427
3429
3430
3431
3433
3434
3435
3436
3441
3442
3444
3447
3449
3450
3451
3454
3455
3457
3459
4090
5348
5349
)


734
(
1
848
849
850
851
852
853
854
855
856
857
858
859
860
861
862
865
866
867
868
869
870
871
872
873
874
875
876
877
878
879
880
881
882
883
884
885
886
887
888
890
891
892
893
894
895
896
897
898
899
900
901
902
903
904
905
906
907
918
919
920
921
922
923
924
925
926
927
928
929
930
931
932
933
934
935
937
940
941
942
943
944
945
946
947
948
949
950
951
952
953
954
955
956
969
970
971
972
973
974
975
976
977
978
979
980
984
985
986
987
988
989
990
991
992
995
998
999
1000
1001
1002
1003
1004
1005
1006
1007
1008
1009
1010
1011
1012
1018
1019
1020
1021
1022
1023
1024
1025
1026
1027
1028
1029
1030
1032
1033
1034
1035
1036
1037
1038
1039
1040
1041
1042
1043
1044
1045
1046
1047
1048
1049
1050
1051
1052
1053
1054
1055
1056
1057
1058
1059
1060
1061
1062
1063
1064
1065
1066
1067
1068
1069
1070
1071
1072
1073
1074
1075
1076
1077
1078
1079
1080
1081
1082
1083
1087
1088
1089
1096
1097
1098
1099
1100
1101
1102
1103
1104
1105
1106
1107
1108
1109
1110
1111
1112
1113
1114
1115
1116
1117
1118
1119
1120
1121
1122
1123
1124
1125
1126
1127
1128
1129
1130
1137
1139
1143
1148
1150
1151
1172
1175
1544
1545
1547
1548
1549
1559
1560
1571
1572
1573
1577
1578
1579
1580
1592
1593
1598
1603
1604
1605
1606
1607
1608
1609
1610
1611
1612
1635
1636
1653
1669
1670
1671
1672
1673
1674
1675
1676
1677
1678
1679
1680
1681
1682
1683
1684
1725
1747
1752
1753
1754
1755
1756
1757
1758
1759
1760
1775
1776
1777
1842
1843
1844
1845
1846
1847
1848
1852
1853
1854
1855
1856
1857
1864
1865
1866
1867
1868
1869
1870
1898
1899
1900
1921
1922
1923
1924
1925
1926
1927
1949
1970
1971
1972
1974
2366
2393
2394
2395
2396
2397
2398
2399
2400
2401
2402
2403
2404
2405
2406
2407
2408
2409
2410
2411
2412
2413
2414
2415
2416
2417
2418
2419
2420
2421
2423
2425
2431
2432
2438
2439
2440
2441
2442
2443
2444
2445
2446
2447
2448
2449
2450
2451
2452
2453
2455
2456
2457
2458
2459
2460
2461
2462
2465
2466
2467
2468
2469
2470
2471
2472
2475
2476
2477
2478
2479
2481
2483
2485
2489
2490
2492
2493
2495
2496
2497
2498
2500
2501
2503
2504
2505
2506
2507
2508
2509
2510
2511
2512
2513
2514
2515
2516
2517
2518
2519
2520
2521
2522
2523
2524
2525
2526
2527
2528
2529
2530
2531
2532
2533
2536
2537
2539
2540
2541
2542
2547
2548
2549
2550
2551
2552
2553
2554
2555
2556
2557
2558
2559
2560
2561
2562
2563
2564
2565
2566
2569
2570
2571
2572
2573
2574
2577
2578
2579
2581
2582
2589
2590
2594
2595
2596
2597
2601
2602
2612
2622
2625
2626
2628
2654
2656
2657
3074
3075
3076
3077
3078
3079
3080
3081
3082
3083
3084
3085
3086
3087
3088
3089
3094
3095
3096
3097
3099
3100
3101
3102
3103
3104
3105
3106
3107
3108
3109
3110
3112
3113
3114
3115
3116
3117
3118
3125
3126
3127
3128
3129
3130
3131
3132
3133
3134
3141
3142
3143
3154
3155
3156
3157
3158
3159
3160
3161
3162
3163
3164
3165
3167
3171
3172
3173
3174
3175
3176
3177
3178
3185
3187
3188
3189
3190
3191
3192
3193
3194
3195
3196
3198
3199
3200
3201
3203
3206
3207
3208
3209
3210
3211
3212
3213
3214
3215
3216
3217
3218
3219
3221
3222
3223
3224
3225
3226
3227
3229
3230
3231
3232
3233
3234
3235
3236
3237
3238
3239
3240
3241
3242
3243
3244
3245
3246
3248
3249
3251
3252
3260
3261
3262
3263
3264
3265
3266
3267
3268
3270
3272
3273
3279
3280
3281
3282
3283
3284
3285
3286
3287
3288
3289
3290
3292
3294
3298
3299
3300
3301
3302
3303
3304
3305
3310
3311
3312
3313
3314
3315
3316
3317
3318
3319
3320
3321
3322
3323
3324
3325
3333
3334
3335
3336
3337
3338
3339
3340
3341
3342
3343
3344
3345
3346
3347
3348
3349
3350
3351
3352
3355
3361
3362
3363
3364
3365
3387
3389
3422
3426
3427
3429
3431
3435
3436
3441
3444
3450
3451
3459
3460
4956
4957
4979
4980
6014
6026
)


788
(
443
848
849
850
851
852
853
854
855
856
857
858
859
860
861
862
863
864
865
866
867
868
869
870
871
872
873
874
875
876
877
878
879
880
881
882
883
884
885
886
887
888
889
890
891
892
893
894
895
896
897
898
899
900
901
902
903
904
905
906
907
908
909
910
911
912
913
914
915
916
917
918
919
920
921
922
923
924
925
926
927
928
929
930
931
932
933
934
935
936
937
938
939
940
941
942
943
944
945
946
947
948
949
950
951
952
953
954
955
956
957
958
959
960
961
962
963
964
965
966
967
968
969
970
971
972
973
974
975
976
977
978
979
980
981
982
983
984
985
986
987
988
989
990
991
992
993
994
995
996
997
998
999
1000
1001
1002
1003
1004
1005
1006
1007
1008
1009
1010
1011
1012
1013
1014
1015
1016
1017
1018
1019
1020
1021
1022
1023
1024
1025
1026
1027
1028
1029
1030
1031
1032
1033
1034
1035
1036
1037
1038
1039
1040
1041
1042
1043
1044
1045
1046
1047
1048
1049
1050
1051
1052
1053
1054
1055
1056
1057
1058
1059
1060
1061
1062
1063
1064
1065
1066
1067
1068
1069
1070
1071
1072
1073
1074
1075
1076
1077
1078
1079
1080
1081
1082
1083
1084
1085
1086
1087
1088
1089
1090
1091
1092
1093
1094
1095
1096
1097
1098
1099
1100
1101
1102
1103
1104
1105
1106
1107
1108
1109
1110
1111
1112
1113
1114
1115
1116
1117
1118
1119
1120
1121
1122
1123
1124
1125
1126
1127
1128
1129
1130
1133
1134
1135
1136
1141
1143
1144
1175
1541
1544
1545
1546
1547
1548
1549
1553
1554
1557
1558
1559
1560
1571
1572
1573
1574
1575
1576
1577
1578
1579
1580
1586
1587
1588
1589
1591
1592
1593
1594
1595
1596
1597
1598
1599
1600
1601
1602
1603
1604
1605
1606
1607
1608
1609
1610
1611
1612
1620
1621
1622
1623
1624
1625
1626
1627
1628
1629
1633
1634
1635
1636
1653
1654
1655
1656
1657
1658
1659
1660
1661
1662
1663
1664
1665
1666
1667
1668
1669
1670
1671
1672
1673
1674
1675
1676
1677
1678
1679
1680
1681
1682
1683
1684
1685
1686
1687
1688
1689
1690
1691
1692
1693
1694
1695
1696
1697
1698
1699
1700
1711
1725
1739
1740
1741
1742
1743
1744
1745
1746
1747
1748
1749
1750
1751
1752
1753
1754
1755
1756
1757
1758
1759
1760
1761
1762
1763
1764
1765
1766
1767
1768
1769
1771
1772
1773
1774
1775
1776
1777
1842
1843
1844
1845
1846
1847
1848
1849
1850
1851
1852
1853
1854
1855
1856
1857
1858
1859
1860
1861
1862
1863
1864
1865
1866
1867
1868
1869
1870
1898
1899
1900
1909
1910
1911
1918
1919
1920
1921
1922
1923
1924
1925
1926
1927
1949
2366
2393
2395
2396
2397
2398
2400
2402
2412
2419
2420
2441
2442