/*--------------------------------*- C++ -*----------------------------------*\
  =========                 |
  \\      /  F ield         | OpenFOAM: The Open Source CFD Toolbox
   \\    /   O peration     | Website:  https://openfoam.org
    \\  /    A nd           | Version:  8
     \\/     M anipulation  |
\*---------------------------------------------------------------------------*/
/*   Windows 32 and 64 bit porting by blueCAPE: http://www.bluecape.com.pt   *\
|  Based on Windows porting (2.0.x v4) by Symscape: http://www.symscape.com   |
\*---------------------------------------------------------------------------*/
FoamFile
{
    version     2.0;
    format      ascii;
    class       scalarListList;
    location    "constant/vegetation";
    object      F;
}
// * * * * * * * * * * * * * * * * * * * * * * * * * * * * * * * * * * * * * //


881
(

1806
(
8.1874427e-06
8.0029666e-06
9.5367462e-06
7.5658401e-06
1.0302857e-05
2.5921414e-06
3.3514746e-06
5.3649914e-05
6.172446e-05
0.00032000298
5.7754322e-05
6.5566312e-05
5.4501868e-05
6.2831179e-05
5.658409e-05
6.6254069e-05
5.8049109e-05
6.7103312e-05
5.709856e-05
0.00028216331
6.1507759e-05
5.8832627e-05
0.00034477051
6.2185058e-05
0.00035922639
6.3464148e-05
0.00028912773
0.00011856117
9.8345272e-05
6.736235e-05
5.815682e-05
5.7829621e-05
6.7245244e-05
0.0001907824
0.00031318774
0.00027216494
6.3624306e-05
5.744891e-05
5.2730771e-05
6.1571761e-05
6.0537006e-05
6.4760442e-05
6.5235951e-05
5.8396889e-05
5.5280184e-05
6.2630175e-05
6.3847889e-05
6.0721854e-05
5.5974244e-05
6.681826e-05
6.5885809e-05
6.2371236e-05
5.7836929e-05
6.7547779e-05
6.7249159e-05
6.1298865e-05
5.7517514e-05
0.00025501343
0.00026463995
0.00029389088
0.00030244071
0.00015798692
0.00015670784
6.6868411e-05
6.7586896e-05
6.2494191e-05
5.8155082e-05
6.2140912e-05
5.8044077e-05
6.7702976e-05
6.7714992e-05
0.00021649996
0.00023531011
0.00027238229
0.00029065546
0.00030319815
0.00027716861
5.0748081e-05
5.6599198e-05
6.071837e-05
5.4170974e-05
5.1697503e-05
5.9825415e-05
6.2740171e-05
5.4772146e-05
5.5992696e-05
6.3167208e-05
5.6149249e-05
6.3651305e-05
0.00033345157
0.00035350009
7.3633028e-05
9.0077648e-05
0.0003592177
0.0001440611
2.4968413e-05
8.1726233e-05
2.7760235e-05
3.0653599e-05
3.353161e-05
0.00026665304
0.00022714238
0.00028454193
5.6427843e-05
6.0433743e-05
6.4469518e-05
5.9264384e-05
6.3600542e-05
6.0039518e-05
6.6419578e-05
6.2129022e-05
6.6824593e-05
6.177053e-05
0.00028934119
0.00030413862
0.00013116599
0.00017400021
0.00019018741
0.00020585291
6.7124668e-05
6.2494459e-05
6.2376876e-05
6.725156e-05
0.00020899456
0.00023577579
0.00025471081
0.00024782399
0.00024442573
0.00025468388
0.00027343751
0.00030070626
0.000324981
0.0003206855
0.00031628997
0.00030954199
4.9662462e-05
5.3422356e-05
5.2632938e-05
5.5304667e-05
5.5690711e-05
5.6088825e-05
0.0001440908
4.3072416e-06
2.8658267e-05
6.7116246e-05
5.6166704e-05
6.5073788e-05
5.7524061e-05
4.2221469e-06
2.7914202e-05
5.2955367e-05
5.9543711e-05
6.9609236e-05
6.7086545e-05
6.9708178e-05
6.8438625e-05
0.0001081883
5.2142196e-05
3.4959418e-05
6.3388104e-05
6.050922e-05
0.00010601211
5.6445157e-05
6.5318852e-05
6.4457349e-05
6.7620493e-05
7.075351e-05
6.8371828e-05
0.00039474613
0.00040252766
7.0795478e-05
6.9353476e-05
0.00039554805
0.00022699428
5.3391903e-05
3.5878841e-05
0.00029378996
6.4066174e-05
6.5077144e-05
6.6600128e-05
6.3366828e-05
0.0003394413
5.7745324e-05
6.663219e-05
0.00037590942
0.00029626815
0.00028214452
6.5228516e-05
6.8480012e-05
0.0003823957
0.00029655879
0.00028511832
0.00017038017
0.0001683154
6.6855113e-05
6.6491609e-05
5.9435329e-05
5.6817583e-05
6.6443912e-05
6.3809073e-05
6.1795233e-05
5.7163018e-05
1.24014e-05
3.6701296e-06
2.4677723e-05
2.0345877e-05
5.4386325e-05
5.0132883e-05
5.2302179e-05
5.8229112e-05
6.9175765e-05
6.2258923e-05
5.9823771e-05
6.8353439e-05
6.9518524e-05
6.2404387e-05
6.1429908e-05
6.9082058e-05
4.712049e-05
4.6249295e-05
3.0929948e-05
4.1383092e-05
6.2413921e-05
5.684271e-05
5.3331848e-05
6.1474648e-05
5.0118755e-05
6.0049229e-05
5.8186371e-05
6.299148e-05
5.7957793e-05
6.5582219e-05
6.0746709e-05
6.6659914e-05
0.00030535493
0.00028779948
1.2707581e-05
3.6611273e-06
2.5984417e-05
2.0878522e-05
7.0372375e-05
6.3458161e-05
6.9597912e-05
6.1422266e-05
7.0547479e-05
6.3455016e-05
7.0051996e-05
6.2063762e-05
4.8291309e-05
4.8222701e-05
3.2286167e-05
4.2446059e-05
6.6084895e-05
5.6341718e-05
6.6352024e-05
5.7891802e-05
6.7682668e-05
6.7332992e-05
6.3515812e-05
5.5084664e-05
6.1375239e-05
5.1982505e-05
6.4319377e-05
5.9954079e-05
6.6331094e-05
5.7380894e-05
6.7475362e-05
6.1289266e-05
3.9551022e-05
0.00023627467
3.8449816e-05
0.0002314331
4.9541379e-05
0.00032616166
0.00027651971
0.00032609291
0.00027615138
3.7085715e-05
0.00011543242
3.6212056e-05
0.00011237597
0.00032414794
0.00027189227
0.0004020276
0.00037116561
0.00034308344
0.0003020578
0.00031939715
0.00025749827
0.0003036076
0.00035020089
0.00030158629
0.0003210226
0.00025252604
0.00030913474
0.00018218439
0.0002204926
0.00017783174
0.00022001773
6.599864e-05
6.0759788e-05
6.5343709e-05
6.1341977e-05
1.0891304e-05
1.7955248e-05
4.7495419e-05
5.1048691e-05
6.1810359e-05
6.1015098e-05
6.2289716e-05
6.1953882e-05
4.1754091e-05
3.6638432e-05
5.5669808e-05
5.4478534e-05
5.3377176e-05
5.6053324e-05
5.899133e-05
5.9927064e-05
0.00031640329
0.00031422964
0.00025977884
0.00029967928
1.1524926e-05
1.8689602e-05
6.3146759e-05
6.251554e-05
6.3190594e-05
6.2730748e-05
4.3490558e-05
3.8411046e-05
6.5814198e-05
6.6635664e-05
8.189305e-05
5.6010929e-05
5.5323795e-05
5.784691e-05
5.9248795e-05
6.0229211e-05
0.00067293643
0.0055351954
0.011391469
0.019109074
0.074671684
0.044100513
0.085848759
0.039526701
0.075228683
0.001929669
0.0068770866
0.0019643784
0.001583561
0.00099934985
0.00065211789
0.00069406694
0.0010797543
0.0014820877
0.0017461738
0.00066957367
0.0010326075
0.0016502659
0.00070037267
0.0023609512
0.0073688542
0.0052262193
0.0028605574
0.0028505101
0.0047757799
0.0066126516
0.0078937749
0.01215505
0.012229587
0.014154158
0.012760958
0.01951648
0.016338495
0.017933657
0.023472278
0.0038708218
0.025332564
0.020748441
0.019905335
0.01683174
0.011472778
0.017104888
0.024408075
0.017708402
0.011419344
0.020062289
0.0149485
3.4577681e-05
3.5087691e-05
3.1589594e-05
3.8716509e-05
3.3265687e-05
3.0470417e-05
2.954637e-05
3.1798467e-05
3.0564845e-05
0.00014657358
0.00015956916
2.332806e-05
9.6029611e-05
1.7819396e-05
2.514515e-05
2.8381028e-05
2.3409835e-05
5.3399575e-05
2.900513e-05
2.5786512e-05
0.0001442547
0.0001469898
0.00011609982
2.2992904e-05
2.240942e-05
0.00010565161
3.5104658e-05
3.592562e-05
3.7089735e-05
3.3901518e-05
3.3307756e-05
3.2733866e-05
3.9196607e-05
3.7305994e-05
3.3803294e-05
3.1988257e-05
2.8660088e-05
2.830944e-05
3.2101316e-05
2.9375553e-05
3.0102985e-05
3.0748115e-05
0.00011938801
2.8733852e-05
6.446182e-05
5.6524289e-05
8.2320933e-05
8.527068e-05
2.6168869e-05
2.568843e-05
2.757662e-05
2.528017e-05
2.8940795e-05
2.7254326e-05
2.4532757e-05
2.4328711e-05
7.27362e-05
4.7499909e-05
4.2285445e-05
0.00013130194
0.00013815052
0.00012674143
0.0001343328
0.00010621566
0.00012260944
9.6083711e-05
0.00011875087
0.00010682804
8.491857e-05
9.0255169e-05
9.4715631e-05
4.4609125e-05
3.6292545e-05
3.9984423e-05
4.015667e-05
4.6123176e-05
4.1226917e-05
0.00016055603
0.00020581692
0.0002039437
4.1290789e-05
0.00022029565
4.2732985e-05
0.000237191
0.00015824532
0.0002004768
5.2488447e-05
6.0055108e-05
0.00011481286
4.1438339e-05
1.772428e-05
4.6661391e-05
0.0001405712
0.00017900745
0.00011780701
4.4987882e-05
4.3105218e-05
3.8396756e-05
3.7513337e-05
4.2411967e-05
3.8743834e-05
4.0615786e-05
4.1619758e-05
4.6469406e-05
4.7645745e-05
4.3767732e-05
4.2470032e-05
0.00015029275
0.00020573108
8.1615432e-05
6.7536318e-05
7.5902003e-05
0.00016201093
0.00014598363
0.0001917139
0.0001620735
0.00013191267
0.00014635338
0.00010098218
0.00013123991
3.4369032e-05
3.3068362e-05
2.7470905e-05
2.936562e-05
2.6419658e-05
2.7077515e-05
2.8202645e-05
2.392213e-05
1.9471075e-05
2.5989113e-05
2.4940646e-05
3.845084e-05
3.986066e-05
3.5930009e-05
4.41861e-05
3.7173522e-05
0.00018830261
2.7270008e-05
3.5701948e-05
0.00017348685
0.00010257993
6.8553997e-06
3.3447548e-05
0.00013365871
8.5110121e-05
5.7229159e-05
9.1957318e-05
6.0282185e-06
2.0401805e-05
2.6260514e-05
1.0984734e-05
7.7040334e-06
3.768354e-05
9.7494682e-06
3.2654817e-05
8.6612544e-06
2.2953168e-05
0.00011653257
9.5237538e-05
0.00012950343
6.4513227e-05
3.6439086e-05
3.5805402e-05
3.4543047e-05
3.7804821e-05
3.2533866e-05
2.9776176e-05
3.0922615e-05
3.1301023e-05
0.0001084764
0.00011329662
4.5778279e-05
3.8597765e-05
7.7011555e-05
7.1423128e-05
6.7684469e-05
4.774282e-05
7.7379972e-05
9.7556661e-05
8.0797034e-05
0.00010083495
2.6729177e-05
2.6526157e-05
2.7815465e-05
2.5509473e-05
6.4835013e-05
5.1619129e-05
5.7826123e-05
0.00013796586
0.00012507247
0.0001117982
8.6427466e-05
0.00010554302
0.0001169389
7.6162291e-05
7.2115559e-05
8.0663599e-05
3.7064243e-05
1.2383704e-05
1.3963433e-05
3.6783505e-05
1.5739063e-05
0.00014327756
4.3513633e-05
3.9721511e-05
4.1060481e-05
4.2054913e-05
4.7956531e-05
4.5126306e-05
0.00016309052
0.00017496341
0.00019015718
0.00017643546
0.00019011018
0.0001519994
0.00017322335
0.00016714648
0.0001891068
0.00018335198
9.1550477e-05
8.5195217e-05
0.00010260568
0.000126108
0.0001744494
0.00015826899
0.00011291375
3.0961233e-05
2.9740817e-05
2.8628862e-05
2.5329969e-05
2.4343352e-05
2.0580321e-05
2.1425264e-05
3.212797e-05
3.3401252e-05
3.4613191e-05
3.8515738e-05
4.6146758e-05
5.2196057e-05
0.00022186466
0.00027168047
4.8543976e-05
0.00021832963
0.00015627208
0.00019703565
4.493536e-05
5.0688901e-05
0.00025441245
4.7098003e-05
5.8936779e-05
0.00010658523
1.9926479e-05
4.9157428e-05
4.7337486e-05
5.2384552e-05
5.3685207e-05
0.00022288451
0.00017924737
0.00017308414
0.00019750813
0.00020990251
0.00021591936
4.78271e-05
4.3709074e-05
5.0920646e-05
4.9171093e-05
0.00012817404
0.00014261642
4.237992e-05
4.9975656e-05
4.1124658e-05
4.5644109e-05
6.5999658e-05
2.2345482e-05
5.0467138e-05
5.3828287e-05
0.00020405176
0.00021783605
0.00023793672
0.00024024613
0.00023660182
0.00022873414
4.6482565e-05
4.9443678e-05
9.5433079e-05
4.3711319e-05
3.9777132e-05
5.7947913e-05
5.0709708e-05
5.6569851e-05
4.9625592e-05
5.4088637e-05
0.00030490304
5.2756562e-05
0.00028864489
5.927336e-05
5.7945171e-05
5.4188462e-05
5.1747022e-05
5.5144051e-05
5.6616938e-05
5.2990084e-05
4.8497569e-05
0.0002685704
0.00024371724
0.00027390833
5.5372832e-05
4.7384015e-05
5.138059e-05
4.621934e-05
0.00023118718
0.00025741791
5.9220341e-05
5.5336935e-05
5.5239866e-05
5.1745304e-05
0.00025365748
0.00027268726
0.00025489281
4.8586617e-05
4.4935237e-05
1.5871921e-05
1.3471429e-05
1.4898466e-05
1.9783219e-05
2.2013694e-05
1.6576756e-05
1.8396801e-05
2.0528425e-05
2.1646925e-05
2.0157203e-05
1.8905238e-05
1.5143666e-05
1.2873698e-05
7.8332544e-05
8.7020168e-05
2.4227803e-05
2.033134e-05
2.2469055e-05
2.2528014e-05
1.5806744e-05
1.7509855e-05
0.00010090253
9.4546636e-05
2.2462914e-05
1.9773561e-05
2.2291435e-05
1.2128919e-05
1.4334694e-05
9.245504e-06
1.2027761e-05
6.8523068e-05
1.9837434e-05
1.669517e-05
1.4988092e-05
1.914952e-05
1.7982061e-05
0.0001053843
1.9503552e-05
1.8697292e-05
1.7179488e-05
1.8379599e-05
1.5118779e-05
1.49044e-05
1.2630315e-05
1.4318153e-05
2.1010179e-05
2.0530359e-05
2.2175516e-05
1.5575199e-05
1.7232607e-05
1.7317676e-05
1.7839155e-05
1.9335219e-05
2.0904677e-05
2.0196549e-05
2.1279435e-05
1.9014225e-05
1.9778358e-05
1.7808197e-05
1.9365597e-05
2.471378e-05
2.3458568e-05
2.1511048e-05
2.0948759e-05
2.266073e-05
2.2869841e-05
2.3608252e-05
2.1697249e-05
1.44331e-05
1.3448854e-05
1.3676303e-05
1.1429658e-05
1.6422108e-05
1.4010332e-05
1.6989459e-05
1.5517385e-05
2.2500616e-05
1.9263311e-05
2.0827934e-05
1.7396418e-05
2.1825351e-05
2.2597031e-05
1.0212009e-05
8.1884676e-06
1.1139719e-05
1.070724e-05
1.8784021e-05
1.666646e-05
1.8410181e-05
1.5915541e-05
3.3591059e-05
4.5366307e-05
4.8362319e-06
0.00011817792
1.2904194e-05
1.3639778e-05
5.7614007e-05
1.6168725e-05
1.5599603e-05
0.00010358993
1.92383e-05
1.8979211e-05
1.7621604e-05
1.8021393e-05
1.4189355e-05
1.3430887e-05
1.6201225e-05
1.6781991e-05
1.9626989e-05
1.9905011e-05
1.8655071e-05
1.8253729e-05
2.384593e-05
2.2048743e-05
2.3145072e-05
2.2764768e-05
1.2804232e-05
1.2160487e-05
1.4567479e-05
1.5046288e-05
2.1741512e-05
2.0761687e-05
2.643196e-05
9.0996053e-06
9.8949066e-06
1.6588083e-05
1.6268727e-05
4.3137315e-07
3.8897997e-06
2.0557034e-05
8.609904e-06
6.0835678e-06
9.6594959e-06
1.258009e-05
8.2266512e-06
4.5549429e-06
3.7130608e-06
6.119783e-07
4.7485619e-06
7.7265215e-06
1.1315576e-05
8.6689448e-06
1.3757467e-06
4.914136e-07
3.7259416e-06
2.3350948e-06
8.0559135e-06
7.5057017e-06
4.9329126e-06
6.4017164e-06
9.0406148e-06
1.0671746e-05
1.1789019e-05
1.1646077e-05
7.1136106e-06
7.29675e-06
2.4837243e-06
5.776071e-06
5.8538653e-06
2.6832901e-06
1.6680038e-06
5.7686069e-06
6.7601602e-06
1.0466185e-05
9.5830677e-06
1.5108224e-06
2.5647814e-06
7.0412996e-06
6.0420617e-06
9.9921121e-06
1.0908918e-05
6.0916212e-06
4.7527578e-06
2.4355302e-05
1.8735829e-05
2.0216111e-05
2.0058642e-05
1.9794463e-05
2.072989e-05
5.8461695e-07
7.8295147e-07
4.0037765e-07
5.1534614e-07
3.9893809e-07
5.3769875e-08
5.3949791e-08
8.2543913e-07
8.2836357e-07
4.6448086e-06
6.5352324e-06
6.8657229e-06
5.1349527e-07
8.273727e-07
1.348602e-06
8.3038394e-07
1.3768227e-06
7.9998678e-07
3.3840271e-06
4.5999327e-06
4.6522864e-06
3.4615417e-06
4.6332516e-06
4.7553007e-06
6.7819247e-06
6.7362807e-06
5.7578025e-06
5.8075523e-06
2.8327221e-07
3.9396374e-07
5.1039031e-07
6.290715e-07
6.2274015e-07
3.8971689e-07
2.8226757e-07
5.0485859e-07
6.2681805e-07
6.1595956e-07
7.3781075e-07
8.5028307e-07
7.1816702e-07
7.4048969e-07
8.5964595e-07
7.2611026e-07
8.174784e-06
7.6563002e-06
7.6090777e-06
8.446224e-06
8.4982405e-06
3.4864194e-07
4.6451972e-07
5.6623136e-07
1.6523983e-07
1.6580884e-07
8.1345086e-08
3.5483103e-07
1.5908309e-06
1.7251878e-06
1.0688402e-06
1.1959388e-06
6.3615415e-07
6.4769113e-07
4.7291553e-07
9.8120109e-07
5.7653161e-07
4.5262623e-07
3.1650215e-06
1.1286982e-06
3.79393e-07
2.892892e-07
4.2757244e-07
3.6576736e-07
8.0423521e-08
4.0830544e-07
1.3482705e-06
5.975546e-07
1.2282449e-06
4.3791332e-07
2.9728757e-07
2.4450218e-07
4.0991226e-06
3.7102337e-06
4.6880394e-06
1.7785477e-06
9.6073768e-07
2.7743843e-06
2.9316238e-07
2.2493683e-06
2.983866e-06
1.0916281e-06
1.9471994e-06
2.9007185e-07
5.6390057e-06
6.5971119e-06
5.6922281e-06
6.6906621e-06
6.644977e-06
5.7189975e-06
5.689277e-06
1.328616e-06
1.7087427e-06
1.3427207e-06
1.2143655e-06
1.5958004e-06
6.8280402e-06
5.9741331e-06
5.9038847e-06
3.9295245e-06
5.0454172e-06
4.9028446e-06
9.6670732e-06
9.8414351e-06
7.7315837e-06
7.3669159e-06
7.4366164e-06
8.2519835e-06
7.5567315e-06
7.4996247e-06
8.3875729e-06
8.3229314e-06
8.9685722e-06
9.7576216e-06
9.05302e-06
9.9179059e-06
9.2020871e-06
9.1309498e-06
7.6973544e-06
8.5814296e-06
8.543313e-06
2.4174038e-07
3.7190625e-07
2.7519905e-06
1.3177358e-06
5.0994878e-08
3.7843983e-07
5.0715338e-08
3.7619051e-07
3.2961429e-06
6.4584113e-06
7.6572127e-07
7.8812031e-07
4.8714995e-07
7.3389045e-07
7.924784e-07
4.842523e-07
4.5227914e-06
4.3753246e-06
4.026776e-06
7.9053069e-07
3.7320907e-07
2.6774912e-07
2.6617596e-07
3.6664586e-07
8.2313238e-07
8.1449074e-07
7.0063112e-07
6.8789842e-07
4.8351853e-07
5.9473732e-07
5.8996499e-07
7.8098405e-07
6.9787634e-07
6.8660362e-07
4.7507848e-07
5.9160259e-07
5.8174966e-07
8.878405e-06
7.2913307e-06
7.9152902e-06
8.7833906e-06
9.5703113e-06
8.0921122e-06
8.0049756e-06
7.211432e-06
7.1300103e-06
7.048428e-06
7.8246169e-06
3.3690988e-07
1.1564318e-06
6.1472556e-07
7.1931424e-07
6.3337066e-07
1.567249e-07
7.5628306e-08
1.5583494e-07
3.2731102e-07
4.4891731e-07
5.4720347e-07
4.3644285e-07
5.3663916e-07
1.2741694e-06
1.5193652e-06
1.6384078e-06
7.4126706e-07
8.1346097e-07
1.5914163e-06
4.1783104e-07
1.1195309e-06
5.7169456e-07
3.7607949e-07
2.7108949e-07
4.0054429e-07
2.2735912e-07
3.4328166e-07
3.5420666e-07
2.8200997e-07
3.5377363e-07
7.7171715e-08
1.0527371e-06
5.4750706e-07
6.2305169e-06
4.22233e-06
1.6370513e-06
1.4761043e-06
3.6773316e-06
1.7654493e-06
9.3956675e-07
2.2977277e-06
1.2294382e-06
1.0638168e-06
1.6316713e-06
9.0386341e-07
2.7780015e-07
2.7288845e-07
5.5277375e-06
6.3779062e-06
5.4128907e-06
6.3018471e-06
5.2746903e-06
5.3248887e-06
1.2884414e-06
1.5949291e-06
3.2774003e-06
1.0451242e-06
2.3193246e-07
3.1044767e-06
4.5350434e-06
2.9911212e-06
3.1192685e-06
2.8180729e-06
3.0892612e-06
4.5130087e-06
3.0407147e-06
4.4405642e-06
3.0236806e-06
4.4156164e-06
2.9764097e-06
3.0736332e-06
3.0573668e-06
2.929443e-06
3.0060353e-06
2.9129297e-06
2.8041736e-06
4.4892021e-06
4.4658142e-06
2.7598133e-06
2.744145e-06
9.8734479e-06
3.0054234e-06
4.5573091e-06
9.1998142e-06
2.831593e-06
9.6712847e-06
2.9612955e-06
2.9455575e-06
2.8959115e-06
9.7750803e-06
9.1083672e-06
9.0117245e-06
8.9112051e-06
4.3894928e-06
2.7898576e-06
2.7750702e-06
2.7281248e-06
8.4840745e-06
8.6853929e-06
2.9695546e-06
2.9506717e-06
9.5632742e-06
4.3370703e-06
9.3355996e-06
2.8917318e-06
4.3105475e-06
4.2294476e-06
2.98806e-06
2.8607819e-06
2.9313552e-06
2.8426792e-06
2.911543e-06
2.787983e-06
9.4683557e-06
8.5858158e-06
9.362926e-06
9.2551424e-06
2.6948799e-06
4.3634494e-06
2.677699e-06
4.2601711e-06
2.8785221e-06
2.8243768e-06
2.8059448e-06
4.2901294e-06
9.1441751e-06
8.9623482e-06
8.3168628e-06
9.4518049e-06
8.8086198e-06
9.1551569e-06
8.5620001e-06
8.7048852e-06
4.2855964e-06
2.711707e-06
2.6603328e-06
2.6258742e-06
2.6427977e-06
5.0452906e-08
4.7898662e-08
7.852694e-07
8.8082624e-07
3.6818307e-07
3.6200659e-07
4.7378516e-07
6.1584683e-06
4.2169542e-06
6.0506708e-08
3.7485173e-07
7.9529086e-07
4.8002002e-07
8.9874324e-07
1.1972437e-06
6.9651662e-06
7.7011498e-07
4.6626047e-07
3.0301391e-06
3.9230048e-06
2.4686677e-06
2.6152038e-06
4.8196236e-06
3.0606377e-06
1.5912208e-06
1.2951691e-06
1.688733e-06
1.9755484e-06
6.4179353e-06
2.8597905e-06
2.8483854e-06
3.7688049e-06
3.6322225e-06
2.9001568e-06
2.872458e-06
4.0271307e-06
4.2063552e-06
3.9706246e-06
3.2027692e-06
2.794211e-06
2.8153356e-06
2.8450333e-06
2.7861899e-06
8.4299015e-06
3.7237428e-06
2.826665e-06
2.8555543e-06
2.7714004e-06
2.432447e-06
2.7178574e-06
2.3429412e-06
2.0690381e-06
4.9390912e-08
1.5503966e-07
6.8312976e-07
7.6567733e-07
1.0247297e-06
8.6640899e-07
2.6172044e-07
3.59197e-07
2.5584303e-07
3.5018902e-07
8.3935844e-07
5.7867665e-07
4.6125987e-07
6.7262557e-07
7.4856391e-07
6.5649327e-07
5.6985653e-07
4.5405043e-07
5.5621809e-07
2.3115784e-06
1.4428888e-06
2.7663378e-06
1.531187e-06
2.1625117e-06
3.8223204e-06
2.2056918e-06
3.4921604e-06
2.1246157e-06
2.8626299e-06
2.7132082e-06
2.7484498e-06
4.1015936e-06
3.8987703e-06
2.5550498e-06
7.1462133e-08
1.4902179e-07
3.1334475e-07
4.1800408e-07
5.1407307e-07
6.8931506e-07
6.0671403e-07
7.1109765e-07
1.5863634e-06
1.4596543e-06
7.924515e-07
3.4970818e-07
1.0404199e-06
5.3080007e-07
1.6143946e-06
2.2731646e-06
3.8780069e-07
2.6146039e-07
2.159327e-07
1.6747365e-07
2.7061651e-07
6.9070283e-07
5.8549216e-07
1.0001754e-06
1.0993798e-06
7.1175792e-07
1.031789e-06
1.4929151e-06
1.3939407e-06
1.785334e-06
1.8809564e-06
2.7456951e-06
2.7632479e-06
2.955907e-06
2.9349878e-06
2.7607646e-06
2.5230881e-06
2.6176744e-06
2.2526765e-06
2.1614183e-06
1.5316923e-07
6.6461999e-07
9.5970344e-07
2.5670002e-07
2.6019558e-07
1.3851532e-06
1.7944992e-06
1.6163306e-06
1.4692797e-06
5.1369957e-06
6.0368008e-06
5.2382808e-06
3.2354298e-06
1.2491343e-06
7.7320291e-06
6.8282756e-06
7.5804207e-06
5.6305644e-07
1.0991962e-06
1.0322479e-06
1.3537831e-06
4.2195721e-06
1.9634628e-06
5.6745927e-06
4.9719965e-06
1.6187367e-06
7.1258063e-06
2.9108417e-06
6.2312248e-06
5.6139835e-06
1.174711e-06
1.2640046e-06
1.7911233e-06
1.7053829e-06
2.2887732e-06
2.0426025e-06
8.6403046e-06
8.1553615e-06
7.664908e-06
4.0463054e-06
6.7408269e-06
2.8118197e-06
2.6487503e-06
2.6109828e-06
2.6051475e-06
7.8170892e-06
3.3516552e-06
6.8390185e-06
7.4003352e-06
2.4049276e-06
1.8758615e-06
1.959735e-06
3.285915e-07
8.7672805e-07
1.1921829e-06
2.124761e-06
2.5932165e-06
1.42453e-06
9.4371856e-07
1.9691753e-06
1.353903e-07
3.710552e-07
5.6294153e-07
3.8195981e-07
1.6474288e-06
1.1111938e-06
8.9786536e-07
2.5229614e-06
1.0204703e-06
1.0801236e-06
7.4236682e-07
3.9431737e-07
1.2985305e-06
2.2150316e-06
1.2476049e-06
5.8865557e-07
7.9058108e-07
1.1437896e-07
8.1451604e-07
1.2242439e-06
1.7238317e-07
0.021545427
0.0073912996
0.0017574128
0.022842638
0.013870001
0.0021421054
0.0038612159
0.0058640952
0.0083912992
0.007092461
0.0054721409
0.0042083721
0.0041296509
0.002625984
0.001417754
0.0011289743
0.0007742448
0.0016676764
0.0007818881
0.0010761803
0.00084501215
0.0007723072
0.00045896944
0.00062144024
0.0016283216
0.0041283043
0.0031496655
0.0023064735
0.014289651
0.0065895537
0.0052734199
0.012540052
0.014147412
0.020018916
1.6126188e-06
1.5968736e-06
1.6941606e-06
1.7108729e-06
9.0018997e-07
1.3120607e-06
8.913791e-07
1.9992448e-06
1.2101617e-06
1.5133481e-06
1.5503902e-06
1.2992185e-06
3.3830594e-06
1.8081071e-06
1.6448836e-06
1.0041716e-06
8.6539409e-07
1.4131429e-06
1.2614183e-06
1.1983484e-06
1.9042452e-06
1.9220247e-06
1.1075222e-06
1.1634492e-06
5.4001244e-08
5.3427995e-08
7.9565241e-07
7.8787481e-07
3.7306354e-07
3.6960858e-07
4.7926462e-07
5.0032853e-08
1.6037365e-07
6.9061623e-07
7.6486988e-07
4.7461343e-07
2.6669817e-07
3.5811807e-07
5.8514289e-07
4.6048055e-07
2.4322266e-06
2.4566566e-06
2.367619e-06
2.343898e-06
2.0930942e-06
2.5459682e-06
2.3597333e-06
2.2772885e-06
2.2745999e-06
3.5387151e-06
2.6381072e-06
2.1857745e-06
2.0120838e-06
1.4985508e-06
1.7904703e-06
2.8907606e-06
6.5521658e-06
6.0136151e-06
5.7118299e-06
9.9438003e-07
1.3993366e-06
2.2166648e-06
1.9796511e-06
1.8855908e-06
1.0966717e-06
1.5930881e-07
1.3475989e-06
6.8384686e-07
2.6445463e-07
5.7943094e-07
2.523277e-06
4.1581645e-06
2.2545468e-06
4.0089826e-06
2.0724622e-06
2.164152e-06
7.8205931e-06
8.6822e-06
6.8983903e-06
4.2031467e-06
7.7684501e-06
1.4549451e-06
2.7283321e-06
2.5568828e-06
5.7315663e-06
2.3912405e-06
4.996637e-06
6.4537329e-06
3.2178564e-06
7.1634498e-06
1.7383467e-06
9.6536089e-07
1.3586026e-06
1.5204343e-06
3.4922211e-06
4.2497101e-06
2.0481618e-06
1.8708703e-06
1.830753e-06
1.0647375e-06
4.7090326e-07
2.3473951e-06
8.8431452e-08
2.7182363e-07
3.9447218e-07
1.1718015e-06
6.3275969e-07
4.4796297e-07
4.5022343e-07
1.4087368e-06
1.3402576e-06
1.5206811e-07
6.6384432e-07
1.1661983e-06
2.7254869e-06
1.9508518e-06
8.085682e-07
9.9175164e-07
2.552254e-07
5.6237755e-07
4.7318762e-07
1.4181939e-06
8.9801095e-06
4.2160927e-06
8.7939178e-06
2.4442217e-06
2.1883747e-06
3.8557597e-06
8.4989728e-06
7.8598548e-06
2.5287364e-06
2.1008814e-06
3.0589308e-06
1.6999624e-06
5.1147998e-06
3.9919371e-06
4.8579556e-06
7.3780844e-06
8.1887902e-06
8.6237053e-06
3.2801534e-06
3.1154855e-06
2.2305228e-06
2.3636435e-06
3.3027491e-06
4.2318953e-06
5.1495244e-06
6.9445813e-06
6.0541258e-06
9.4603027e-06
1.0190418e-05
9.6787488e-06
3.7021185e-06
4.7163203e-07
4.7239671e-07
4.224385e-06
6.9306625e-06
7.8045076e-06
7.7835342e-06
6.91269e-06
4.2142e-06
8.6644107e-06
4.6879197e-07
1.4023399e-06
1.4131409e-06
1.4161144e-06
2.3544408e-06
3.2892496e-06
3.2657807e-06
2.3362105e-06
2.3598948e-06
3.2971482e-06
5.1399912e-06
6.0424436e-06
7.7596909e-06
8.6133702e-06
8.6406057e-06
6.0273828e-06
6.8922089e-06
6.0082651e-06
4.1897543e-06
5.1275124e-06
5.1060492e-06
3.2878439e-06
3.0162322e-06
3.2904919e-06
4.6463067e-06
2.8340041e-06
3.2910794e-06
4.7155485e-06
2.7338312e-06
3.1248926e-06
3.296611e-06
2.9075486e-06
2.8268707e-06
3.2934584e-06
3.293069e-06
3.2915213e-06
3.175336e-06
2.9229771e-06
2.6994299e-06
3.2920843e-06
3.1742505e-06
2.6139859e-06
3.2851367e-06
4.8018946e-06
3.2882338e-06
4.8063865e-06
3.2932737e-06
3.2923748e-06
3.2812566e-06
3.1657347e-06
3.2907009e-06
3.1687574e-06
3.1506155e-06
3.1831857e-06
4.5472467e-06
3.034313e-06
2.9929038e-06
2.653885e-06
2.9831406e-06
2.9859685e-06
4.8117582e-06
3.1751191e-06
1.0404784e-05
2.9915283e-06
3.1670712e-06
7.7174981e-06
4.3688381e-06
3.1752829e-06
3.1746181e-06
2.7579896e-06
3.1745601e-06
3.1743376e-06
1.0473963e-05
2.9910588e-06
9.526239e-06
3.1730133e-06
3.161978e-06
3.171219e-06
9.7297212e-06
4.8248185e-06
4.8213582e-06
9.9153587e-06
9.3597954e-06
4.8222443e-06
3.1718947e-06
3.1068784e-06
2.9916145e-06
2.9909922e-06
4.2976385e-06
4.7958935e-06
9.717892e-06
9.7629789e-06
4.8211565e-06
4.8151198e-06
1.045859e-05
9.7429108e-06
2.9795998e-06
2.9899105e-06
2.9882295e-06
1.0264051e-05
1.0245438e-05
9.507265e-06
3.2890041e-06
2.774664e-06
2.6376321e-06
3.2657096e-06
3.2715513e-06
3.1961611e-06
1.0198734e-05
3.2070004e-06
3.1471283e-06
4.5985023e-06
3.2443058e-06
4.7733467e-06
4.7417441e-06
4.7817291e-06
3.1601667e-06
4.6708614e-06
4.6173315e-06
3.2359903e-06
4.6865898e-06
4.7296139e-06
3.2593032e-06
3.1469821e-06
3.2768232e-06
3.1526225e-06
3.1848194e-06
3.0797577e-06
3.2173285e-06
3.0902373e-06
3.1333813e-06
3.0323548e-06
3.2520803e-06
3.1263069e-06
3.1727336e-06
3.0449595e-06
3.2268815e-06
3.1182663e-06
9.5015217e-06
1.0261176e-05
9.5593276e-06
4.5777656e-06
2.8570421e-06
2.9654146e-06
2.9458503e-06
2.9707499e-06
2.9018463e-06
4.6537466e-06
2.8689522e-06
2.9117493e-06
2.938247e-06
1.0050635e-05
1.0361917e-05
1.0400792e-05
3.1407912e-06
9.9870962e-06
1.0147386e-05
3.1576616e-06
1.0185835e-05
3.0687923e-06
3.1002227e-06
3.0190659e-06
3.1338159e-06
3.0571085e-06
3.1094594e-06
9.9654556e-06
9.2852385e-06
1.0128353e-05
9.436286e-06
9.3641102e-06
4.6362877e-06
4.7637293e-06
9.6526092e-06
1.0315554e-05
4.7533945e-06
9.6098283e-06
4.7020469e-06
4.7159253e-06
4.7894193e-06
9.6882631e-06
1.0432924e-05
2.8444792e-06
2.9595598e-06
2.9529592e-06
2.9754844e-06
2.8914785e-06
2.8804383e-06
2.9211905e-06
2.9299196e-06
1.0048522e-05
9.2665325e-06
9.3236043e-06
1.0101944e-05
9.4153107e-06
9.3732108e-06
1.0218154e-05
9.4509391e-06
9.4810831e-06
)


1800
(
2.0702022e-05
2.1218757e-05
2.5179476e-05
1.9785646e-05
2.6606154e-05
6.6477917e-06
8.6900481e-06
2.1337499e-05
9.6906973e-06
2.9529251e-05
3.3936149e-06
4.9841454e-06
5.546025e-06
1.8999675e-05
8.9878398e-05
0.00011833088
0.00073154305
0.00011604147
0.00012331486
9.1097038e-05
0.00012021348
9.3087023e-05
0.00012344044
9.1603369e-05
0.00011497307
9.3159255e-05
0.0008166288
0.00012120951
0.00011799011
0.00077638706
0.00012134526
0.00076693987
0.00011888109
0.00095378591
0.0010126148
0.0012451236
0.00011216387
9.051632e-05
8.5750391e-05
0.00011346203
0.0012558361
0.00099062561
0.0006754974
0.00011715312
0.00010034903
8.8409114e-05
0.00011254084
0.00011607199
0.00012272564
0.00011701548
0.00010177978
9.2048367e-05
0.00011423413
0.00012168977
0.00010412259
9.2711661e-05
0.00012310277
0.0001171218
0.00010238704
9.2415931e-05
0.00012105766
0.00012230055
0.00010420979
9.2934594e-05
0.00065690322
0.00067301109
0.00083953716
0.00098486689
0.0011951937
0.0017044621
0.00010688857
0.00011486003
0.00010110997
8.9164054e-05
9.5531374e-05
8.7565837e-05
0.00011938093
0.00011730197
0.0012302007
0.0011529985
0.0016831335
0.0015028625
0.00084339028
0.00066399416
0.00010648086
0.00011370668
0.00012059745
0.00011144062
0.00010829534
0.00011952103
0.00012099559
0.00011156941
0.00010922226
0.00012016779
0.00010763426
0.00011502322
0.00076024012
0.00077870015
0.00068905468
0.0010684598
0.00073710473
0.0014989083
0.00024550766
0.00087124921
0.00031444316
0.00039157733
0.00046369887
0.0011662964
0.0016787647
0.0012591649
9.8626429e-05
0.00011050524
0.0001164878
0.00010289815
0.00011555973
0.00010367944
0.00011681701
0.00010333778
0.00011609302
0.00010394875
0.0010997069
0.0011419061
0.0012528179
0.0014416613
0.0016790037
0.0018624544
0.00010938512
9.9522293e-05
9.7654903e-05
0.00011158845
0.0014774543
0.0014151351
0.0013009612
0.0010505848
0.0018235802
0.0015749139
0.0014236727
0.0013168743
0.0011240629
0.0009700501
0.0011505825
0.00082760086
0.00010416002
0.00011082574
0.00010981976
0.00011123133
0.00011047031
0.00010534857
0.00083290006
1.8879117e-05
0.00012012449
0.00010936924
7.7057874e-05
9.8849818e-05
8.3756246e-05
1.6584238e-05
0.00010562993
7.1205613e-05
8.8324137e-05
0.00017015364
0.00018568995
0.00016349528
0.00014205482
0.00082760749
0.00017553838
0.00012922687
0.00010844252
9.2931374e-05
0.001338503
0.00018320116
0.00018836276
0.00011447169
0.00013487265
0.00018180522
0.00020110816
0.0013337733
0.0012164787
0.00017400328
0.00014963661
0.00096975721
0.0012074734
0.00019545931
0.00014631595
0.0014064122
0.00010856273
0.00011460675
0.00010492891
0.00010982015
0.00066543417
0.00020279511
0.00020503969
0.0014255799
0.0011428566
0.0012497565
0.00011942457
0.00014165066
0.00085080026
0.00079164352
0.00068345916
0.001162436
0.0018021058
0.00010651127
0.00010414353
8.4195814e-05
7.9561841e-05
0.00010339919
9.3529411e-05
9.3190245e-05
8.165433e-05
4.8399343e-05
1.3061073e-05
8.508762e-05
7.8413257e-05
7.5455504e-05
6.6187567e-05
7.5888101e-05
8.3474097e-05
0.00017625453
0.00014508886
0.00015632527
0.0001815358
0.00015648599
0.00013993837
0.00012282533
0.00014929308
0.00016416888
0.0001440714
0.00010452244
0.0001487792
0.00010293388
9.4567439e-05
7.9998797e-05
9.7806801e-05
0.00015116051
0.00018757908
0.00015782644
0.00018914279
9.9931418e-05
0.00012098893
0.00011696738
0.00012783145
0.0015238891
0.0017163587
5.5258048e-05
1.7859586e-05
0.0001203984
8.9431189e-05
0.00018911876
0.00017073863
0.00019566428
0.00019152602
0.00016593026
0.00016307111
0.00015776014
0.00013870955
0.00018387404
0.00019129566
0.00014506835
0.00016758701
0.00010942695
9.9130557e-05
0.00011253284
0.00010496674
0.00010940009
0.00011006332
0.00011247747
9.9053309e-05
0.00020644352
0.00019710747
0.00020699689
0.00019606734
0.00012638241
0.00010806029
0.00013390272
0.00013122743
0.0004130456
0.0016628738
0.00048701641
0.0018725887
0.00029996356
0.0012075315
0.0016360634
0.0010548766
0.0006323713
0.00030314895
0.0011086969
0.00050414668
0.0012926026
0.0012963194
0.001814154
0.0010916899
0.00069234882
0.0014633381
0.0010227314
0.0013675164
0.0013184299
0.0015200783
0.00071232932
0.00090333072
0.00091605023
0.00054963086
0.00078536609