/*--------------------------------*- C++ -*----------------------------------*\
  =========                 |
  \\      /  F ield         | OpenFOAM: The Open Source CFD Toolbox
   \\    /   O peration     | Website:  https://openfoam.org
    \\  /    A nd           | Version:  8
     \\/     M anipulation  |
\*---------------------------------------------------------------------------*/
/*   Windows 32 and 64 bit porting by blueCAPE: http://www.bluecape.com.pt   *\
|  Based on Windows porting (2.0.x v4) by Symscape: http://www.symscape.com   |
\*---------------------------------------------------------------------------*/
FoamFile
{
    version     2.0;
    format      ascii;
    class       scalarListList;
    location    "constant/vegetation";
    object      sunViewCoeff;
}
// * * * * * * * * * * * * * * * * * * * * * * * * * * * * * * * * * * * * * //


5
(

881
(
501.05251
501.05251
501.05251
501.05251
501.05251
501.05251
501.05251
501.05251
501.05251
501.05251
501.05251
501.05251
501.05251
501.05251
501.05251
501.05251
501.05251
501.05251
501.05251
473.57296
501.05251
501.05251
501.05251
106.33004
0
501.05251
501.05251
501.05251
0
501.05251
501.05251
501.05251
471.73572
185.97864
0
501.05251
501.05251
0
501.05251
0
0
501.05251
501.05251
501.05251
501.05251
501.05251
501.05251
501.05251
501.05251
501.05251
501.05251
501.05251
501.05251
501.05251
501.05251
501.05251
501.05251
501.05251
501.05251
501.05251
501.05251
501.05251
501.05251
501.05251
501.05251
501.05251
501.05251
501.05251
501.05251
501.05251
501.05251
501.05251
501.05251
501.05251
501.05251
501.05251
501.05251
501.05251
501.05251
501.05251
501.05251
501.05251
501.05251
501.05251
501.05251
501.05251
501.05251
501.05251
501.05251
501.05251
501.05251
501.05251
81.062547
81.062547
81.062547
81.062547
81.062547
81.062547
81.062547
81.062547
81.062547
81.062547
81.062547
81.062547
81.062547
81.062547
81.062547
81.062547
81.062547
81.062547
81.062547
501.05251
81.062547
81.062547
81.062547
81.062547
81.062547
81.062547
81.062547
81.062547
81.062547
81.062547
81.062547
81.062547
81.062547
81.062547
81.062547
81.062547
81.062547
81.062547
81.062547
81.062547
81.062547
81.062547
81.062547
81.062547
81.062547
81.062547
81.062547
81.062547
81.062547
81.062547
81.062547
81.062547
81.062547
81.062547
81.062547
81.062547
81.062547
81.062547
81.062547
81.062547
81.062547
81.062547
81.062547
81.062547
81.062547
81.062547
81.062547
81.062547
81.062547
81.062547
81.062547
81.062547
81.062547
81.062547
81.062547
81.062547
81.062547
81.062547
81.062547
81.062547
81.062547
81.062547
81.062547
501.05251
501.05251
501.05251
501.05251
501.05251
501.05251
501.05251
501.05251
501.05251
501.05251
501.05251
501.05251
501.05251
501.05251
501.05251
501.05251
501.05251
501.05251
501.05251
501.05251
81.062547
501.05251
501.05251
501.05251
501.05251
501.05251
501.05251
501.05251
501.05251
501.05251
501.05251
81.062547
501.05251
501.05251
501.05251
501.05251
501.05251
501.05251
501.05251
501.05251
501.05251
501.05251
501.05251
501.05251
501.05251
501.05251
501.05251
81.062547
81.062547
501.05251
81.062547
81.062547
501.05251
501.05251
501.05251
81.062547
81.062547
81.062547
81.062547
81.062547
501.05251
501.05251
501.05251
501.05251
501.05251
501.05251
501.05251
501.05251
501.05251
501.05251
501.05251
501.05251
501.05251
81.062547
81.062547
81.062547
501.05251
501.05251
501.05251
501.05251
501.05251
501.05251
501.05251
501.05251
501.05251
501.05251
501.05251
501.05251
501.05251
501.05251
501.05251
501.05251
501.05251
501.05251
501.05251
501.05251
501.05251
501.05251
501.05251
501.05251
81.062547
501.05251
81.062547
501.05251
501.05251
501.05251
501.05251
501.05251
501.05251
501.05251
501.05251
501.05251
501.05251
81.062547
501.05251
81.062547
501.05251
81.062547
81.062547
501.05251
501.05251
501.05251
501.05251
501.05251
501.05251
501.05251
501.05251
81.062547
501.05251
81.062547
501.05251
81.062547
81.062547
501.05251
501.05251
501.05251
501.05251
501.05251
501.05251
501.05251
501.05251
501.05251
501.05251
501.05251
81.062547
81.062547
81.062547
81.062547
81.062547
81.062547
501.05251
501.05251
501.05251
501.05251
501.05251
501.05251
501.05251
501.05251
501.05251
81.062547
501.05251
81.062547
501.05251
81.062547
501.05251
501.05251
81.062547
501.05251
501.05251
501.05251
501.05251
501.05251
501.05251
81.062547
81.062547
81.062547
81.062547
81.062547
81.062547
81.062547
81.062547
81.062547
81.062547
81.062547
81.062547
501.05251
501.05251
501.05251
501.05251
501.05251
501.05251
81.062547
81.062547
81.062547
81.062547
81.062547
81.062547
501.05251
501.05251
501.05251
501.05251
501.05251
501.05251
501.05251
501.05251
501.05251
501.05251
501.05251
501.05251
501.05251
501.05251
501.05251
501.05251
501.05251
501.05251
501.05251
501.05251
501.05251
501.05251
501.05251
501.05251
501.05251
501.05251
501.05251
501.05251
501.05251
501.05251
501.05251
501.05251
501.05251
501.05251
501.05251
501.05251
501.05251
501.05251
501.05251
501.05251
501.05251
501.05251
501.05251
501.05251
501.05251
501.05251
501.05251
501.05251
501.05251
501.05251
501.05251
0
81.062547
81.062547
81.062547
81.062547
81.062547
81.062547
81.062547
81.062547
81.062547
81.062547
81.062547
81.062547
81.062547
81.062547
81.062547
0
0
81.062547
81.062547
81.062547
81.062547
81.062547
81.062547
81.062547
81.062547
81.062547
81.062547
0
81.062547
81.062547
81.062547
81.062547
81.062547
81.062547
81.062547
0
0
81.062547
81.062547
81.062547
81.062547
81.062547
81.062547
81.062547
81.062547
81.062547
0
81.062547
81.062547
81.062547
81.062547
81.062547
81.062547
81.062547
81.062547
81.062547
81.062547
0
0
0
81.062547
81.062547
81.062547
81.062547
81.062547
81.062547
81.062547
81.062547
81.062547
81.062547
81.062547
81.062547
81.062547
81.062547
81.062547
81.062547
81.062547
81.062547
0
0
81.062547
81.062547
81.062547
81.062547
81.062547
81.062547
81.062547
81.062547
0
0
0
81.062547
81.062547
81.062547
81.062547
81.062547
81.062547
81.062547
81.062547
81.062547
81.062547
81.062547
81.062547
81.062547
81.062547
81.062547
81.062547
81.062547
81.062547
0
0
81.062547
81.062547
81.062547
81.062547
81.062547
81.062547
81.062547
81.062547
81.062547
81.062547
81.062547
81.062547
81.062547
81.062547
81.062547
81.062547
81.062547
81.062547
81.062547
81.062547
81.062547
81.062547
81.062547
81.062547
81.062547
81.062547
81.062547
81.062547
81.062547
81.062547
81.062547
81.062547
0
0
81.062547
81.062547
81.062547
81.062547
0
81.062547
0
0
81.062547
81.062547
81.062547
81.062547
0
0
0
81.062547
81.062547
81.062547
81.062547
0
0
0
0
0
0
0
0
0
0
0
0
0
81.062547
81.062547
81.062547
0
0
0
0
0
0
0
0
0
0
81.062547
0
0
0
0
0
0
0
0
0
0
0
0
0
0
0
0
0
0
0
0
0
0
0
0
0
0
0
0
0
0
0
0
0
0
0
0
0
0
0
81.062547
81.062547
81.062547
81.062547
81.062547
81.062547
81.062547
81.062547
81.062547
81.062547
0
0
0
0
0
0
0
0
0
0
0
0
0
0
0
0
0
0
0
0
0
0
0
0
0
0
0
0
0
0
0
0
0
0
0
0
0
0
0
0
0
0
0
0
0
0
0
0
0
0
0
0
0
0
0
0
0
0
0
0
0
0
0
0
0
81.062547
81.062547
0
0
0
0
81.062547
81.062547
0
0
0
0
81.062547
81.062547
81.062547
81.062547
81.062547
0
0
81.062547
0
0
81.062547
0
0
81.062547
0
0
0
0
0
0
0
0
0
0
81.062547
0
0
81.062547
0
0
81.062547
0
0
81.062547
0
0
0
0
0
0
0
0
0
81.062547
0
0
81.062547
0
0
81.062547
0
0
81.062547
0
0
81.062547
0
0
81.062547
0
0
81.062547
0
0
81.062547
0
0
0
0
0
0
81.062547
81.062547
81.062547
81.062547
0
0
0
0
0
0
0
0
0
0
0
0
0
0
0
0
0
0
0
0
0
0
0
0
0
0
0
0
0
0
0
0
81.062547
81.062547
81.062547
81.062547
81.062547
81.062547
81.062547
81.062547
81.062547
81.062547
81.062547
81.062547
81.062547
81.062547
81.062547
81.062547
0
0
0
0
0
0
0
0
0
0
0
0
0
0
0
0
0
)


881
(
284.54856
284.54856
284.54856
284.54856
141.58598
116.23768
0
0
0
284.54856
284.54856
284.54856
284.54856
284.54856
284.54856
284.54856
284.54856
284.54856
142.9199
268.94288
215.89667
233.93038
164.42498
0
0
143.40223
0
0
0
115.78017
284.54856
284.54856
0
0
0
0
0
0
0
0
0
284.54856
284.54856
284.54856
284.54856
284.54856
284.54856
284.54856
284.54856
284.54856
284.54856
284.54856
284.54856
284.54856
284.54856
284.54856
284.54856
284.54856
284.54856
284.54856
284.54856
284.54856
284.54856
284.54856
284.54856
284.54856
284.54856
284.54856
284.54856
284.54856
284.54856
284.54856
284.54856
284.54856
284.54856
284.54856
284.54856
284.54856
284.54856
284.54856
284.54856
284.54856
284.54856
284.54856
284.54856
284.54856
284.54856
284.54856
284.54856
284.54856
284.54856
284.54856
0
0
0
0
0
0
0
0
0
0
0
0
0
0
0
0
0
0
0
284.54856
0
0
0
0
0
0
0
0
0
0
0
0
0
0
0
0
0
0
0
0
0
0
0
0
0
0
0
0
0
0
0
0
0
0
0
0
0
0
0
0
0
0
0
0
0
0
0
0
0
0
0
0
0
0
0
0
0
0
0
0
0
0
0
284.54856
284.54856
284.54856
284.54856
284.54856
284.54856
284.54856
284.54856
284.54856
284.54856
284.54856
284.54856
284.54856
284.54856
284.54856
284.54856
284.54856
284.54856
284.54856
284.54856
0
284.54856
284.54856
284.54856
284.54856
284.54856
284.54856
284.54856
284.54856
284.54856
284.54856
0
284.54856
284.54856
284.54856
284.54856
284.54856
284.54856
284.54856
284.54856
284.54856
284.54856
284.54856
284.54856
284.54856
284.54856
284.54856
0
0
284.54856
0
0
284.54856
284.54856
284.54856
0
0
0
0
0
284.54856
284.54856
284.54856
284.54856
284.54856
284.54856
284.54856
284.54856
284.54856
284.54856
284.54856
284.54856
284.54856
0
0
0
284.54856
284.54856
284.54856
284.54856
284.54856
284.54856
284.54856
284.54856
284.54856
284.54856
284.54856
284.54856
284.54856
284.54856
284.54856
284.54856
284.54856
284.54856
284.54856
284.54856
284.54856
284.54856
284.54856
284.54856
0
284.54856
0
284.54856
284.54856
284.54856
284.54856
284.54856
284.54856
284.54856
284.54856
284.54856
284.54856
0
284.54856
0
284.54856
0
0
284.54856
284.54856
284.54856
284.54856
284.54856
284.54856
284.54856
284.54856
0
284.54856
0
284.54856
0
0
284.54856
284.54856
284.54856
284.54856
284.54856
284.54856
284.54856
284.54856
284.54856
284.54856
284.54856
0
0
0
0
0
0
284.54856
284.54856
284.54856
284.54856
284.54856
284.54856
284.54856
284.54856
284.54856
0
284.54856
0
284.54856
0
284.54856
284.54856
0
284.54856
284.54856
284.54856
284.54856
284.54856
284.54856
0
0
0
0
0
0
0
0
0
0
0
0
284.54856
284.54856
284.54856
284.54856
284.54856
284.54856
0
0
0
0
0
0
284.54856
284.54856
284.54856
284.54856
284.54856
284.54856
284.54856
284.54856
284.54856
284.54856
284.54856
284.54856
284.54856
284.54856
284.54856
284.54856
284.54856
284.54856
284.54856
284.54856
284.54856
284.54856
284.54856
284.54856
284.54856
284.54856
284.54856
284.54856
284.54856
284.54856
284.54856
284.54856
284.54856
284.54856
284.54856
284.54856
284.54856
284.54856
284.54856
284.54856
284.54856
284.54856
284.54856
284.54856
284.54856
284.54856
284.54856
284.54856
284.54856
284.54856
284.54856
0
0
0
0
0
0
0
0
0
0
0
0
0
0
0
0
0
0
0
0
0
0
0
0
0
0
0
0
0
0
0
0
0
0
0
0
0
0
0
0
0
0
0
0
0
0
0
0
0
0
0
0
0
0
0
0
0
0
0
0
0
0
0
0
0
0
0
0
0
0
0
0
0
0
0
0
0
0
0
0
0
0
0
0
0
0
0
0
0
0
0
0
0
0
0
0
0
0
0
0
0
0
0
0
0
0
0
0
0
0
0
0
0
0
0
0
0
0
0
0
0
0
0
0
0
0
0
0
0
0
0
0
0
0
0
0
0
0
0
0
0
0
0
0
0
0
0
0
0
0
0
0
0
0
0
0
0
0
0
0
0
0
0
0
0
0
0
0
0
0
0
0
0
0
0
0
0
0
0
0
0
0
0
0
0
0
0
0
0
0
0
0
0
0
0
0
0
0
0
0
0
0
0
0
0
0
0
0
0
0
0
0
0
0
0
0
0
0
0
0
0
0
0
0
0
0
0
0
0
0
0
0
0
0
0
0
0
0
0
0
0
0
0
0
0
0
0
0
0
0
0
0
0
0
0
0
0
0
0
0
0
0
0
0
0
0
0
0
0
0
0
0
0
0
0
0
0
0
0
0
0
0
0
0
0
0
0
0
0
0
0
0
0
0
0
0
0
0
0
0
0
0
0
0
0
0
0
0
0
0
0
0
0
0
0
0
0
0
0
0
0
0
0
0
0
0
0
0
0
0
0
0
0
0
0
0
0
0
0
0
0
0
0
0
0
0
0
0
0
0
0
0
0
0
0
0
0
0
0
0
0
0
0
0
0
0
0
0
0
0
0
0
0
0
0
0
0
0
0
0
0
0
0
0
0
0
0
0
0
0
0
0
0
0
0
0
0
0
0
0
0
0
0
0
0
0
0
0
0
0
0
0
0
0
0
0
0
0
0
0
0
0
0
0
0
0
0
0
0
0
0
0
0
0
0
0
0
0
0
0
0
0
0
0
0
0
0
0
0
0
0
0
0
0
0
0
0
0
)


881
(
247.54772
212.66183
0
0
0
0
0
0
0
247.54772
247.54772
247.54772
247.54772
247.54772
105.07677
247.54772
247.54772
247.54772
124.33553
233.9713
0
247.54772
0
0
0
0
0
0
0
0
247.54772
0
0
0
0
0
0
0
0
0
0
247.54772
247.54772
247.54772
247.54772
247.54772
247.54772
247.54772
247.54772
247.54772
247.54772
247.54772
247.54772
247.54772
247.54772
247.54772
247.54772
247.54772
247.54772
247.54772
247.54772
247.54772
247.54772
247.54772
247.54772
247.54772
247.54772
247.54772
247.54772
247.54772
247.54772
247.54772
247.54772
247.54772
247.54772
247.54772
247.54772
247.54772
247.54772
247.54772
247.54772
247.54772
247.54772
247.54772
247.54772
247.54772
247.54772
247.54772
247.54772
247.54772
247.54772
247.54772
0
0
0
0
0
0
0
0
0
0
0
0
0
0
0
0
0
0
0
247.54772
0
0
0
0
0
0
0
0
0
0
0
0
0
0
0
0
0
0
0
0
0
0
0
0
0
0
0
0
0
0
0
0
0
0
0
0
0
0
0
0
0
0
0
0
0
0
0
0
0
0
0
0
0
0
0
0
0
0
0
0
0
0
0
247.54772
247.54772
247.54772
247.54772
247.54772
247.54772
247.54772
247.54772
247.54772
247.54772
247.54772
247.54772
247.54772
247.54772
247.54772
247.54772
247.54772
247.54772
247.54772
247.54772
0
247.54772
247.54772
247.54772
247.54772
247.54772
247.54772
247.54772
247.54772
247.54772
247.54772
0
247.54772
247.54772
247.54772
247.54772
247.54772
247.54772
247.54772
247.54772
247.54772
247.54772
247.54772
247.54772
247.54772
247.54772
247.54772
0
0
247.54772
0
0
247.54772
247.54772
247.54772
0
0
0
0
0
247.54772
247.54772
247.54772
247.54772
247.54772
247.54772
247.54772
247.54772
247.54772
247.54772
247.54772
247.54772
247.54772
0
0
0
247.54772
247.54772
247.54772
247.54772
247.54772
247.54772
247.54772
247.54772
247.54772
247.54772
247.54772
247.54772
247.54772
247.54772
247.54772
247.54772
247.54772
247.54772
247.54772
247.54772
247.54772
247.54772
247.54772
247.54772
0
247.54772
0
247.54772
247.54772
247.54772
247.54772
247.54772
247.54772
247.54772
247.54772
247.54772
247.54772
0
247.54772
0
247.54772
0
0
247.54772
247.54772
247.54772
247.54772
247.54772
247.54772
247.54772
247.54772
0
247.54772
0
247.54772
0
0
247.54772
247.54772
247.54772
247.54772
247.54772
247.54772
247.54772
247.54772
247.54772
247.54772
247.54772
0
0
0
0
0
0
247.54772
247.54772
247.54772
247.54772
247.54772
247.54772
247.54772
247.54772
247.54772
0
247.54772
0
247.54772
0
247.54772
247.54772
0
247.54772
247.54772
247.54772
247.54772
247.54772
247.54772
0
0
0
0
0
0
0
0
0
0
0
0
247.54772
247.54772
247.54772
247.54772
247.54772
247.54772
0
0
0
0
0
0
247.54772
247.54772
247.54772
247.54772
247.54772
247.54772
247.54772
247.54772
247.54772
247.54772
247.54772
247.54772
247.54772
247.54772
247.54772
247.54772
247.54772
247.54772
247.54772
247.54772
247.54772
247.54772
247.54772
247.54772
247.54772
247.54772
247.54772
247.54772
247.54772
247.54772
247.54772
247.54772
247.54772
247.54772
247.54772
247.54772
247.54772
247.54772
247.54772
247.54772
247.54772
247.54772
247.54772
247.54772
247.54772
247.54772
247.54772
247.54772
247.54772
247.54772
247.54772
0
0
0
0
0
0
0
0
0
0
0
0
0
0
0
0
0
0
0
0
0
0
0
0
0
0
0
0
0
0
0
0
0
0
0
0
0
0
0
0
0
0
0
0
0
0
0
0
0
0
0
0
0
0
0
0
0
0
0
0
0
0
0
0
0
0
0
0
0
0
0
0
0
0
0
0
0
0
0
0
0
0
0
0
0
0
0
0
0
0
0
0
0
0
0
0
0
0
0
0
0
0
0
0
0
0
0
0
0
0
0
0
0
0
0
0
0
0
0
0
0
0
0
0
0
0
0
0
0
0
0
0
0
0
0
0
0
0
0
0
0
0
0
0
0
0
0
0
0
0
0
0
0
0
0
0
0
0
0
0
0
0
0
0
0
0
0
0
0
0
0
0
0
0
0
0
0
0
0
0
0
0
0
0
0
0
0
0
0
0
0
0
0
0
0
0
0
0
0
0
0
0
0
0
0
0
0
0
0
0
0
0
0
0
0
0
0
0
0
0
0
0
0
0
0
0
0
0
0
0
0
0
0
0
0
0
0
0
0
0
0
0
0
0
0
0
0
0
0
0
0
0
0
0
0
0
0
0
0
0
0
0
0
0
0
0
0
0
0
0
0
0
0
0
0
0
0
0
0
0
0
0
0
0
0
0
0
0
0
0
0
0
0
0
0
0
0
0
0
0
0
0
0
0
0
0
0
0
0
0
0
0
0
0
0
0
0
0
0
0
0
0
0
0
0
0
0
0
0
0
0
0
0
0
0
0
0
0
0
0
0
0
0
0
0
0
0
0
0
0
0
0
0
0
0
0
0
0
0
0
0
0
0
0
0
0
0
0
0
0
0
0
0
0
0
0
0
0
0
0
0
0
0
0
0
0
0
0
0
0
0
0
0
0
0
0
0
0
0
0
0
0
0
0
0
0
0
0
0
0
0
0
0
0
0
0
0
0
0
0
0
0
0
0
0
0
0
0
0
0
0
0
0
0
0
0
0
0
0
0
0
0
0
0
0
0
0
0
0
0
0
0
0
0
0
0
0
0
)


881
(
199.17451
0
0
0
0
0
0
0
0
218.93877
218.93877
218.93877
218.93877
218.93877
0
109.99324
218.93877
218.93877
218.93877
218.93877
0
218.93877
0
0
101.37821
0
0
68.240187
100.81561
0
218.93877
87.250284
0
0
0
0
0
0
0
0
0
218.93877
218.93877
218.93877
218.93877
218.93877
218.93877
218.93877
218.93877
218.93877
218.93877
218.93877
218.93877
218.93877
218.93877
218.93877
218.93877
218.93877
218.93877
218.93877
218.93877
218.93877
218.93877
218.93877
218.93877
218.93877
218.93877
218.93877
218.93877
218.93877
218.93877
218.93877
218.93877
218.93877
218.93877
218.93877
218.93877
218.93877
218.93877
218.93877
218.93877
218.93877
218.93877
218.93877
218.93877
218.93877
218.93877
218.93877
218.93877
218.93877
218.93877
218.93877
0
0
0
0
0
0
0
0
0
0
0
0
0
0
0
0
0
0
0
218.93877
0
0
0
0
0
0
0
0
0
0
0
0
0
0
0
0
0
0
0
0
0
0
0
0
0
0
0
0
0
0
0
0
0
0
0
0
0
0
0
0
0
0
0
0
0
0
0
0
0
0
0
0
0
0
0
0
0
0
0
0
0
0
0
218.93877
218.93877
218.93877
218.93877
218.93877
218.93877
218.93877
218.93877
218.93877
218.93877
218.93877
218.93877
218.93877
218.93877
218.93877
218.93877
218.93877
218.93877
218.93877
218.93877
0
218.93877
218.93877
218.93877
218.93877
218.93877
218.93877
218.93877
218.93877
218.93877
218.93877
0
218.93877
218.93877
218.93877
218.93877
218.93877
218.93877
218.93877
218.93877
218.93877
218.93877
218.93877
218.93877
218.93877
218.93877
218.93877
0
0
218.93877
0
0
218.93877
218.93877
218.93877
0
0
0
0
0
218.93877
218.93877
218.93877
218.93877
218.93877
218.93877
218.93877
218.93877
218.93877
218.93877
218.93877
218.93877
218.93877
0
0
0
218.93877
218.93877
218.93877
218.93877
218.93877
218.93877
218.93877
218.93877
218.93877
218.93877
218.93877
218.93877
218.93877
218.93877
218.93877
218.93877
218.93877
218.93877
218.93877
218.93877
218.93877
218.93877
218.93877
218.93877
0
218.93877
0
218.93877
218.93877
218.93877
218.93877
218.93877
218.93877
218.93877
218.93877
218.93877
218.93877
0
218.93877
0
218.93877
0
0
218.93877
218.93877
218.93877
218.93877
218.93877
218.93877
218.93877
218.93877
0
218.93877
0
218.93877
0
0
218.93877
218.93877
218.93877
218.93877
218.93877
218.93877
218.93877
218.93877
218.93877
218.93877
218.93877
0
0
0
0
0
0
218.93877
218.93877
218.93877
218.93877
218.93877
218.93877
218.93877
218.93877
218.93877
0
218.93877
0
218.93877
0
218.93877
218.93877
0
218.93877
218.93877
218.93877
218.93877
218.93877
218.93877
0
0
0
0
0
0
0
0
0
0
0
0
218.93877
218.93877
218.93877
218.93877
218.93877
218.93877
0
0
0
0
0
0
218.93877
218.93877
218.93877
218.93877
218.93877
218.93877
218.93877
218.93877
218.93877
218.93877
218.93877
218.93877
218.93877
218.93877
218.93877
218.93877
218.93877
218.93877
218.93877
218.93877
218.93877
218.93877
218.93877
218.93877
218.93877
218.93877
218.93877
218.93877
218.93877
218.93877
218.93877
218.93877
218.93877
218.93877
218.93877
218.93877
218.93877
218.93877
218.93877
218.93877
218.93877
218.93877
218.93877
218.93877
218.93877
218.93877
218.93877
218.93877
218.93877
218.93877
218.93877
0
0
0
0
0
0
0
0
0
0
0
0
0
0
0
0
0
0
0
0
0
0
0
0
0
0
0
0
0
0
0
0
0
0
0
0
0
0
0
0
0
0
0
0
0
0
0
0
0
0
0
0
0
0
0
0
0
0
0
0
0
0
0
0
0
0
0
0
0
0
0
0
0
0
0
0
0
0
0
0
0
0
0
0
0
0
0
0
0
0
0
0
0
0
0
0
0
0
0
0
0
0
0
0
0
0
0
0
0
0
0
0
0
0
0
0
0
0
0
0
0
0
0
0
0
0
0
0
0
0
0
0
0
0
0
0
0
0
0
0
0
0
0
0
0
0
0
0
0
0
0
0
0
0
0
0
0
0
0
0
0
0
0
0
0
0
0
0
0
0
0
0
0
0
0
0
0
0
0
0
0
0
0
0
0
0
0
0
0
0
0
0
0
0
0
0
0
0
0
0
0
0
0
0
0
0
0
0
0
0
0
0
0
0
0
0
0
0
0
0
0
0
0
0
0
0
0
0
0
0
0
0
0
0
0
0
0
0
0
0
0
0
0
0
0
0
0
0
0
0
0
0
0
0
0
0
0
0
0
0
0
0
0
0
0
0
0
0
0
0
0
0
0
0
0
0
0
0
0
0
0
0
0
0
0
0
0
0
0
0
0
0
0
0
0
0
0
0
0
0
0
0
0
0
0
0
0
0
0
0
0
0
0
0
0
0
0
0
0
0
0
0
0
0
0
0
0
0
0
0
0
0
0
0
0
0
0
0
0
0
0
0
0
0
0
0
0
0
0
0
0
0
0
0
0
0
0
0
0
0
0
0
0
0
0
0
0
0
0
0
0
0
0
0
0
0
0
0
0
0
0
0
0
0
0
0
0
0
0
0
0
0
0
0
0
0
0
0
0
0
0
0
0
0
0
0
0
0
0
0
0
0
0
0
0
0
0
0
0
0
0
0
0
0
0
0
0
0
0
0
0
0
0
0
0
0
0
0
0
0
0
0
0
0
0
0
0
0
0
0
0
0
0
0
0
0
0
0
)


881
(
131.37809
0
0
0
0
0
0
0
0
180.4505
180.4505
180.4505
180.4505
180.4505
0
180.4505
180.4505
180.4505
180.4505
180.4505
0
180.4505
0
180.4505
180.4505
0
0
180.4505
180.4505
0
180.4505
180.4505
138.45358
180.4505
180.4505
0
0
180.4505
0
180.4505
180.4505
180.4505
180.4505
180.4505
180.4505
180.4505
180.4505
180.4505
180.4505
180.4505
180.4505
180.4505
180.4505
180.4505
180.4505
180.4505
180.4505
180.4505
180.4505
180.4505
180.4505
180.4505
180.4505
180.4505
180.4505
180.4505
180.4505
180.4505
180.4505
180.4505
180.4505
180.4505
180.4505
180.4505
180.4505
180.4505
180.4505
180.4505
180.4505
180.4505
180.4505
180.4505
180.4505
180.4505
180.4505
180.4505
180.4505
180.4505
180.4505
180.4505
180.4505
180.4505
0
0
0
0
0
0
0
0
0
0
0
0
0
0
0
0
0
0
0
180.4505
0
0
0
0
0
0
0
0
0
0
0
0
0
0
0
0
0
0
0
0
0
0
0
0
0
0
0
0
0
0
0
0
0
0
0
0
0
0
0
0
0
0
0
0
0
0
0
0
0
0
0
0
0
0
0
0
0
0
0
0
0
0
0
180.4505
180.4505
180.4505
180.4505
180.4505
180.4505
180.4505
180.4505
180.4505
180.4505
180.4505
180.4505
180.4505
180.4505
180.4505
180.4505
180.4505
180.4505
180.4505
180.4505
0
180.4505
180.4505
180.4505
180.4505
180.4505
180.4505
180.4505
180.4505
180.4505
180.4505
0
180.4505
180.4505
180.4505
180.4505
180.4505
180.4505
180.4505
180.4505
180.4505
180.4505
180.4505
180.4505
180.4505
180.4505
180.4505
0
0
180.4505
0
0
180.4505
180.4505
180.4505
0
0
0
0
0
180.4505
180.4505
180.4505
180.4505
180.4505
180.4505
180.4505
180.4505
180.4505
180.4505
180.4505
180.4505
180.4505
0
0
0
180.4505
180.4505
180.4505
180.4505
180.4505
180.4505
180.4505
180.4505
180.4505
180.4505
180.4505
180.4505
180.4505
180.4505
180.4505
180.4505
180.4505
180.4505
180.4505
180.4505
180.4505
180.4505
180.4505
180.4505
0
180.4505
0
180.4505
180.4505
180.4505
180.4505
180.4505
180.4505
180.4505
180.4505
180.4505
180.4505
0
180.4505
0
180.4505
0
0
180.4505
180.4505
180.4505
180.4505
180.4505
180.4505
180.4505
180.4505
0
180.4505
0
180.4505
0
0
180.4505
180.4505
180.4505
180.4505
180.4505
180.4505
180.4505
180.4505
180.4505
180.4505
180.4505
0
0
0
0
0
0
180.4505
180.4505
180.4505
180.4505
180.4505
180.4505
180.4505
180.4505
180.4505
0
180.4505
0
180.4505
0
180.4505
180.4505
0
180.4505
180.4505
180.4505
180.4505
180.4505
180.4505
0
0
0
0
0
0
0
0
0
0
0
0
180.4505
180.4505
180.4505
180.4505
180.4505
180.4505
0
0
0
0
0
0
180.4505
180.4505
180.4505
180.4505
180.4505
180.4505
180.4505
180.4505
180.4505
180.4505
180.4505
180.4505
180.4505
180.4505
180.4505
180.4505
180.4505
180.4505
180.4505
180.4505
180.4505
180.4505
180.4505
180.4505
180.4505
180.4505
180.4505
180.4505
180.4505
180.4505
180.4505
180.4505
180.4505
180.4505
180.4505
180.4505
180.4505
180.4505
180.4505
180.4505
180.4505
180.4505
180.4505
180.4505
180.4505
180.4505
180.4505
180.4505
180.4505
180.4505
180.4505
1.3650296
0
0
0
0
0
0
0
0
0
0
0
0
0
0
0
1.3650296
1.3650296
0
0
0
0
0
0
0
0
0
0
1.3650296
0
0
0
0
0
0
0
1.3650296
1.3650296
0
0
0
0
0
0
0
0
0
1.3650296
0
0
0
0
0
0
0
0
0
0
1.3650296
1.3650296
1.3650296
0
0
0
0
0
0
0
0
0
0
0
0
0
0
0
0
0
0
1.3650296
1.3650296
0
0
0
0
0
0
0
0
1.3650296
1.3650296
1.3650296
0
0
0
0
0
0
0
0
0
0
0
0
0
0
0
0
0
0
1.3650296
1.3650296
0
0
0
0
0
0
0
0
0
0
0
0
0
0
0
0
0
0
0
0
0
0
0
0
0
0
0
0
0
0
0
0
1.3650296
1.3650296
0
0
0
0
1.3650296
0
1.3650296
1.3650296
0
0
0
0
1.3650296
1.3650296
1.3650296
0
0
0
0
1.3650296
1.3650296
1.3650296
1.3650296
1.3650296
1.3650296
1.3650296
1.3650296
1.3650296
1.3650296
1.3650296
1.3650296
1.3650296
0
0
0
1.3650296
1.3650296
1.3650296
1.3650296
1.3650296
1.3650296
1.3650296
1.3650296
1.3650296
1.3650296
0
1.3650296
1.3650296
1.3650296
1.3650296
1.3650296
1.3650296
1.3650296
1.3650296
1.3650296
1.3650296
1.3650296
1.3650296
1.3650296
1.3650296
1.3650296
1.3650296
1.3650296
1.3650296
1.3650296
1.3650296
1.3650296
1.3650296
1.3650296
1.3650296
1.3650296
1.3650296
1.3650296
1.3650296
1.3650296
1.3650296
1.3650296
1.3650296
1.3650296
1.3650296
1.3650296
1.3650296
1.3650296
1.3650296
1.3650296
0
0
0
0
0
0
0
0
0
0
1.3650296
1.3650296
1.3650296
1.3650296
1.3650296
1.3650296
1.3650296
1.3650296
1.3650296
1.3650296
1.3650296
1.3650296
1.3650296
1.3650296
1.3650296
1.3650296
1.3650296
1.3650296
1.3650296
1.3650296
1.3650296
1.3650296
1.3650296
1.3650296
1.3650296
1.3650296
1.3650296
1.3650296
1.3650296
1.3650296
1.3650296
1.3650296
1.3650296
1.3650296
1.3650296
1.3650296
1.3650296
1.3650296
1.3650296
1.3650296
1.3650296
1.3650296
1.3650296
1.3650296
1.3650296
1.3650296
1.3650296
1.3650296
1.3650296
1.3650296
1.3650296
1.3650296
1.3650296
1.3650296
1.3650296
1.3650296
1.3650296
1.3650296
1.3650296
1.3650296
1.3650296
1.3650296
1.3650296
1.3650296
1.3650296
0
0
1.3650296
1.3650296
1.3650296
1.3650296
0
0
1.3650296
1.3650296
1.3650296
1.3650296
0
0
0
0
0
1.3650296
1.3650296
0
1.3650296
1.3650296
0
1.3650296
1.3650296
0
1.3650296
1.3650296
1.3650296
1.3650296
1.3650296
1.3650296
1.3650296
1.3650296
1.3650296
1.3650296
0
1.3650296
1.3650296
0
1.3650296
1.3650296
0
1.3650296
1.3650296
0
1.3650296
1.3650296
1.3650296
1.3650296
1.3650296
1.3650296
1.3650296
1.3650296
1.3650296
0
1.3650296
1.3650296
0
1.3650296
1.3650296
0
1.3650296
1.3650296
0
1.3650296
1.3650296
0
1.3650296
1.3650296
0
1.3650296
1.3650296
0
1.3650296
1.3650296
0
1.3650296
1.3650296
1.3650296
1.3650296
1.3650296
1.3650296
0
0
0
0
1.3650296
1.3650296
1.3650296
1.3650296
1.3650296
1.3650296
1.3650296
1.3650296
1.3650296
1.3650296
1.3650296
1.3650296
1.3650296
1.3650296
1.3650296
1.3650296
1.3650296
1.3650296
1.3650296
1.3650296
1.3650296
1.3650296
1.3650296
1.3650296
1.3650296
1.3650296
1.3650296
1.3650296
1.3650296
1.3650296
1.3650296
1.3650296
0
0
0
0
0
0
0
0
0
0
0
0
0
0
0
0
1.3650296
1.3650296
1.3650296
1.3650296
1.3650296
1.3650296
1.3650296
1.3650296
1.3650296
1.3650296
1.3650296
1.3650296
1.3650296
1.3650296
1.3650296
1.3650296
1.3650296
)

)


// ************************************************************************* //
