/*--------------------------------*- C++ -*----------------------------------*\
  =========                 |
  \\      /  F ield         | OpenFOAM: The Open Source CFD Toolbox
   \\    /   O peration     | Website:  https://openfoam.org
    \\  /    A nd           | Version:  8
     \\/     M anipulation  |
\*---------------------------------------------------------------------------*/
/*   Windows 32 and 64 bit porting by blueCAPE: http://www.bluecape.com.pt   *\
|  Based on Windows porting (2.0.x v4) by Symscape: http://www.symscape.com   |
\*---------------------------------------------------------------------------*/
FoamFile
{
    version     2.0;
    format      ascii;
    class       scalarListList;
    location    "constant/vegetation";
    object      F;
}
// * * * * * * * * * * * * * * * * * * * * * * * * * * * * * * * * * * * * * //


228
(

2673
(
0.00014679445
0.00040088497
0.00021599846
0.00026038921
0.00017816665
0.0004665688
6.5746953e-05
0.00026877624
7.1897144e-06
7.3980487e-06
6.995911e-06
6.0980939e-06
6.9682789e-06
7.1627353e-06
6.2613653e-06
6.4298388e-06
6.7826231e-06
6.6033289e-06
0.0017656126
0.00023746246
5.8161558e-05
9.7400914e-05
1.4713221e-05
6.9560566e-06
0.00010793637
1.0487846e-05
6.6268016e-06
2.7331896e-06
8.5966316e-05
4.9784782e-05
2.938e-06
1.2728519e-05
0.00011961073
6.6093793e-05
1.7926316e-05
1.7484011e-05
5.4849215e-06
1.5896297e-05
5.7136586e-05
1.7536018e-05
2.4983274e-05
2.0501955e-05
1.9718574e-05
2.0482448e-05
2.3676889e-05
4.242897e-06
5.8847004e-06
0.00017419061
4.700083e-06
1.1569907e-05
5.5078957e-05
3.9666047e-06
3.9646636e-05
2.1915775e-05
9.7843586e-06
7.3970078e-05
1.5765497e-05
3.0352824e-05
1.1485914e-05
1.230461e-05
5.866248e-05
2.4331362e-05
9.9695019e-06
8.0528052e-05
2.8599295e-05
3.034029e-05
3.4963217e-05
9.5770824e-06
1.0360429e-05
5.1523384e-06
1.7233819e-05
7.7096316e-06
0.00027096193
0.0010804528
0.00038454645
0.000686083
6.705754e-07
1.6153229e-05
5.441803e-06
2.7260856e-05
4.951455e-06
7.4641112e-06
9.1520344e-06
8.8293094e-06
1.8685485e-06
4.1585881e-06
6.956777e-06
6.7312002e-06
9.9149384e-06
7.9568476e-06
5.8588629e-06
9.2147398e-06
7.6912873e-06
6.0947802e-06
1.9163573e-08
9.4633241e-06
2.26021e-08
2.3214305e-08
8.5245167e-06
2.3832129e-08
5.1544447e-06
8.157875e-08
7.5617399e-09
7.1917382e-06
1.9589936e-08
2.0260891e-08
6.5138964e-06
1.8858272e-08
1.7424513e-08
9.7615579e-06
4.0602209e-08
2.2644094e-08
8.2343281e-06
2.2437726e-08
2.317298e-08
5.5827269e-06
7.8822937e-09
5.8680154e-09
7.3339271e-07
6.6239549e-07
8.7858086e-06
3.2402848e-07
2.6253139e-06
1.8373433e-06
3.1546389e-06
7.4363763e-06
2.1674542e-08
2.0967325e-08
6.3033361e-06
9.01771e-09
1.4263978e-08
6.1525733e-07
1.081351e-06
1.12785e-06
1.4231973e-06
1.2245495e-06
1.0620355e-06
1.0312397e-06
9.6579871e-07
9.996334e-07
9.3155285e-07
6.5876638e-07
6.4417069e-07
8.4357609e-07
8.7226975e-07
9.3327423e-07
9.0222913e-07
8.1522292e-07
7.8237456e-07
6.9031031e-07
7.3526719e-07
9.9543444e-06
9.9491574e-06
1.0143306e-05
1.0141238e-05
9.9541552e-06
9.9492157e-06
1.0144429e-05
8.5838159e-06
9.1835337e-06
9.9382128e-06
1.0136584e-05
9.9042557e-06
9.9368891e-06
1.0141552e-05
9.9600336e-06
9.7315115e-06
8.8768095e-06
1.0137705e-05
1.2321153e-06
1.096554e-05
1.0628391e-05
1.4784592e-06
1.2322923e-06
1.0067914e-05
1.4793478e-06
1.0752853e-05
1.0410904e-05
9.9840064e-06
8.1553724e-06
1.2130059e-06
1.2181835e-06
1.0854797e-05
1.4513008e-06
7.5440119e-06
8.2160861e-06
7.6011395e-06
2.207878e-06
2.3643424e-06
2.1630274e-06
1.9613218e-06
1.0742337e-06
1.2292204e-06
1.0745939e-06
1.3239209e-06
8.012102e-06
1.4602465e-06
7.930953e-06
1.2347364e-06
2.6960134e-06
3.6582293e-06
3.2031798e-06
1.7096208e-06
1.8981963e-06
1.1487304e-06
1.2272818e-06
3.746867e-06
3.7349781e-06
3.6856529e-06
3.7266191e-06
1.6521653e-06
1.2616195e-06
1.2254308e-06
2.8660288e-06
2.57054e-06
2.241067e-06
2.4828109e-06
1.4943191e-06
1.8835968e-06
2.1669025e-06
1.9537439e-06
2.9884959e-06
3.6310536e-06
3.7456283e-06
3.7791095e-06
3.7758747e-06
1.1041939e-05
3.7105964e-06
3.7053414e-06
1.0506844e-05
8.6840529e-06
8.6152695e-06
2.0947562e-06
1.4744332e-06
2.1104067e-06
2.9461493e-06
9.4429825e-06
2.6453637e-06
2.0597658e-06
1.4924648e-06
1.9031148e-06
3.0415806e-06
3.6727729e-06
3.6821854e-06
8.8609222e-06
3.6216195e-06
2.9738751e-06
1.0992899e-05
3.6542447e-06
3.6971958e-06
1.2775288e-06
2.0638169e-06
1.4459159e-06
2.5280876e-06
2.4383401e-06
8.810393e-06
2.3059137e-06
2.554976e-06
1.9822658e-06
2.0504717e-06
6.9345854e-06
2.2287509e-06
1.9725035e-06
1.4287765e-06
1.5649551e-06
1.9169309e-06
1.8541262e-06
2.6255324e-06
2.7365419e-06
1.0894012e-06
1.4720458e-06
2.0812537e-06
2.107047e-06
3.5345711e-06
3.9704075e-06
3.6005739e-06
3.9360957e-06
3.4731317e-06
3.753967e-06
3.873861e-06
4.0589361e-06
3.7457439e-06
4.0560301e-06
3.7412847e-06
4.0441643e-06
4.0512149e-06
3.9926201e-06
3.703068e-06
3.7160937e-06
4.0348988e-06
4.0233971e-06
2.7268024e-06
2.7601213e-06
2.62684e-06
2.2729062e-06
2.3536792e-06
2.6625689e-06
2.4472886e-06
2.5346397e-06
2.1955772e-06
2.1215191e-06
2.1339641e-06
2.3183102e-06
2.2074569e-06
2.3638595e-06
2.3988225e-06
2.2840253e-06
1.4387585e-06
1.7060801e-06
1.6432122e-06
1.6798449e-06
1.6265745e-06
1.8077569e-06
1.8015109e-06
1.7337435e-06
2.0635039e-06
2.0945414e-06
1.9957309e-06
1.7357426e-06
1.7938278e-06
2.0232296e-06
1.8660585e-06
1.9302346e-06
1.1132693e-05
1.1408683e-05
1.0972893e-05
1.158685e-05
1.1281463e-05
1.1746634e-05
2.8407325e-06
3.1480738e-06
2.9815563e-06
3.0294905e-06
2.8718855e-06
3.3676412e-06
3.3997055e-06
3.1688581e-06
1.0866896e-05
1.1196465e-05
1.0909329e-05
1.1155758e-05
4.060802e-06
3.7481093e-06
4.064043e-06
3.7590168e-06
4.1074817e-06
4.0748379e-06
1.0853319e-05
1.0850064e-05
1.0581391e-05
1.1210826e-05
1.0804321e-05
1.0941092e-05
1.1622034e-05
3.1268361e-06
7.9043677e-06
4.906439e-06
3.5623011e-06
4.1655521e-06
4.1759442e-06
1.4775514e-06
1.6751334e-06
1.6749135e-06
1.4810073e-06
1.6745571e-06
1.6763593e-06
1.4313034e-06
1.6418529e-06
1.6111544e-06
1.4653622e-06
1.6542459e-06
1.6607922e-06
1.4762651e-06
1.6713931e-06
1.6734453e-06
1.4848355e-06
1.6969579e-06
1.6832266e-06
1.3835861e-06
1.3768303e-06
1.5370414e-06
1.4690711e-06
1.6686714e-06
1.6652118e-06
1.2316111e-06
1.0737424e-05
9.9894541e-06
1.0132275e-05
1.2324721e-06
8.4159048e-06
9.370046e-06
7.9265474e-06
8.7437683e-06
6.9087694e-06
7.4067485e-06
1.2041932e-06
1.2218978e-06
6.3755358e-06
6.7706555e-06
5.7351237e-06
1.117252e-06
2.0410855e-06
2.3942827e-06
2.098973e-06
2.0303166e-06
1.2306508e-06
1.1149384e-06
7.1090571e-06
8.0950551e-06
7.1682254e-06
7.0588891e-06
8.0592315e-06
7.1424449e-06
1.2331854e-06
1.7737335e-06
1.8319997e-06
1.1863112e-06
1.224855e-06
1.5795399e-06
1.5000093e-06
1.1439653e-06
1.1214132e-05
1.1072927e-05
1.0928648e-05
1.0628389e-05
1.0792459e-05
3.7147112e-06
3.7042197e-06
3.7324977e-06
3.711596e-06
3.7263505e-06
3.7306342e-06
1.0684925e-05
9.9051576e-06
1.0084365e-05
9.3191841e-06
8.8074934e-06
9.4553903e-06
9.2440872e-06
8.7677594e-06
9.4124018e-06
1.8303306e-06
2.11235e-06
1.8329866e-06
2.1119554e-06
1.8296748e-06
1.8320196e-06
2.8401843e-06
3.1966091e-06
3.0966696e-06
2.7403685e-06
2.8864016e-06
2.9927972e-06
1.8097438e-06
1.8536692e-06
1.8001225e-06
1.815812e-06
2.1052281e-06
1.8097316e-06
3.1907482e-06
3.2775741e-06
3.1242108e-06
3.6580731e-06
3.6472508e-06
3.3087513e-06
3.4256684e-06
3.679462e-06
3.7702068e-06
3.5407879e-06
3.6333967e-06
3.5075838e-06
2.5906746e-06
3.3415379e-06
3.2788044e-06
3.6736413e-06
3.6660389e-06
3.6944826e-06
3.6866259e-06
3.7186847e-06
3.7064399e-06
1.7940711e-06
1.9910882e-06
1.7519504e-06
1.4410082e-06
1.8559367e-06
1.6433926e-06
2.385455e-06
2.5139048e-06
2.6057957e-06
2.4683992e-06
2.7913404e-06
2.693085e-06
2.1507617e-06
2.4319869e-06
2.3280144e-06
2.055432e-06
1.9277009e-06
2.2157014e-06
1.1522499e-05
1.1773042e-05
1.1547731e-05
1.809468e-06
2.0959509e-06
1.8176388e-06
1.8266414e-06
2.101366e-06
1.8226417e-06
0.00029281858
0.00056056784
0.00024839854
1.9395218e-05
1.0484628e-05
1.1491077e-05
1.3804651e-05
0.0003017893
3.2512465e-05
1.2354758e-05
1.2649817e-05
1.1898842e-05
1.1418582e-05
1.1775027e-05
1.2395031e-05
1.2289346e-05
1.1876381e-05
1.166494e-05
1.2044613e-05
1.1546333e-05
1.2174532e-05
1.2054826e-05
1.2492368e-05
1.1969994e-05
1.2580894e-05
1.2132695e-05
1.2733922e-05
1.2661858e-05
1.2202114e-05
1.6586832e-05
1.2504031e-05
1.2452145e-05
1.2587299e-05
1.2367584e-05
1.2944092e-05
1.2410359e-05
1.2905394e-05
1.2319533e-05
1.2798556e-05
1.2264693e-05
1.2855281e-05
1.1347833e-05
1.1591775e-05
1.1474248e-05
1.1701009e-05
1.1802242e-05
1.2057587e-05
1.2126931e-05
1.1979985e-05
1.1895396e-05
1.2466884e-05
1.2558488e-05
1.2412208e-05
1.2371612e-05
1.2243813e-05
1.2189012e-05
1.2291563e-05
1.2333235e-05
1.3168359e-05
1.3094088e-05
1.3235151e-05
1.3293396e-05
1.4530501e-05
0.0015861463
0.00099037837
0.00027138917
8.6683339e-05
3.5379132e-05
0.0010738033
0.00015093916
3.3307443e-05
0.00019351767
0.00036001179
0.00026759182
0.00010474829
2.7932771e-05
2.2792034e-05
4.1468922e-05
0.00015286194
3.2422087e-05
0.00014781942
3.2998256e-05
3.408451e-05
0.00025794914
8.8257665e-05
4.2273543e-05
0.00010217679
5.1252807e-05
0.00022063217
2.1881572e-05
2.1113012e-05
1.7725579e-05
3.963171e-05
8.0161734e-05
1.4651401e-05
4.6430743e-05
5.5255473e-05
5.0053042e-05
3.644319e-05
2.0462373e-05
8.570284e-05
5.5176434e-05
1.398166e-05
2.9174548e-05
1.3140313e-05
0.0001619875
0.0037411719
0.0021489335
0.0015582266
0.0011518515
0.0022064591
0.00073215399
0.0011591438
0.0011923197
7.4204677e-05
3.7716216e-05
4.2496678e-05
5.6692949e-05
3.1548863e-05
0.0017043085
0.0030307719
7.2639344e-05
0.00014747603
0.00021508701
0.00017421959
0.0017653244
0.0051455088
0.00039109835
0.00033758429
0.00030597957
6.0907188e-05
0.00016694439
0.0018809821
0.016475366
0.00095199132
0.00045698162
0.00020469614
0.00073418311
0.00091702932
0.00029223654
9.6970291e-05
0.0003032345
0.00067453812
0.00042074467
0.00014114083
0.00017287009
0.00051341328
0.00043110669
9.8184152e-05
0.00091000696
0.0023124663
0.00022306571
0.00047705708
0.00058881023
5.9640993e-05
0.028738432
0.0044990079
0.0043242677
0.010323882
0.00011509595
0.00018524705
0.00017853039
0.00021177602
0.00020622958
0.00015984864
3.5893946e-05
0.00018543202
5.1734504e-05
0.00019220461
4.6420755e-07
0.00017205668
4.5050924e-07
0.00021054014
1.716064e-07
2.5002109e-05
0.00019931548
3.5556165e-07
2.0165399e-05
2.3059805e-05
0.00016583159
4.0421375e-07
1.9409348e-05
1.7322233e-05
0.00017326981
0.00016389641
0.00025476936
6.7693833e-05
0.00026878418
0.00020467598
0.00013811719
0.00031162025
0.00021629281
0.00012933112
0.00030856597
5.0385776e-07
0.00018318449
5.3347185e-07
4.7205382e-07
0.00015503612
4.2004797e-07
4.317156e-06
0.00018131588
5.5990024e-05
0.00024132679
7.0820502e-07
7.0331765e-07
9.7390695e-05
2.4563297e-05
3.4864143e-06
0.00028326989
6.3349318e-07
4.3621125e-07
0.00019363827
5.9734427e-07
5.6515507e-07
0.00014664184
3.2848726e-07
3.1453369e-07
0.00027952264
8.7175101e-07
6.7692265e-06
3.517291e-05
7.973593e-05
4.3609799e-05
5.3796283e-05
0.00022850808
6.3248256e-07
6.6750955e-07
0.00011843908
2.9236766e-07
4.6903648e-07
2.7931387e-05
1.9292001e-05
0.00029679611
4.0101746e-07
4.3610066e-07
4.7036248e-07
4.3508394e-07
2.179727e-05
2.3065374e-05
2.5826693e-05
2.4411765e-05
2.0513166e-05
1.926411e-05
1.6865129e-05
1.7854052e-05
5.1897853e-07
2.8911226e-05
3.1996922e-05
3.0519722e-05
2.7323927e-05
2.8889295e-05
1.6449181e-05
1.7007785e-05
3.2857361e-05
3.3709114e-05
3.8064372e-05
3.527053e-05
4.4964818e-07
2.0969099e-05
2.187672e-05
4.1949391e-07
1.8685406e-05
1.7989914e-05
8.0015191e-05
8.0026408e-05
7.3474263e-05
0.00032607807
0.00032605743
7.4942779e-05
0.00031076547
0.00027162843
0.0002986127
0.0003590587
6.0380256e-05
4.4400355e-05
8.0565079e-05
7.8908163e-05
7.9465529e-05
8.079614e-05
7.9507058e-05
8.1932805e-05
6.5773335e-05
7.4160988e-05
5.8571099e-05
3.6188837e-05
4.1729717e-05
7.817776e-05
7.56735e-05
7.8776746e-05
3.4706198e-05
6.5165383e-05
7.8948199e-05
8.1708599e-05
6.8071333e-05
7.8130042e-05
0.00021186515
0.00020252222
8.3041085e-05
7.9828652e-05
8.3081211e-05
7.989002e-05
7.1679855e-05
7.6180982e-05
6.6949454e-05
4.5235144e-05
5.6180635e-05
7.1610821e-05
0.00034110257
7.0599971e-05
7.6198356e-05
7.7819841e-05
0.00033567287
6.7346038e-05
7.0002913e-05
4.263768e-05
6.08143e-05
7.2837536e-05
6.4434054e-05
7.9034014e-05
7.9189014e-05
5.2483763e-05
7.9459819e-05
8.190934e-05
7.9676686e-05
8.2846607e-05
6.9282855e-05
6.3539207e-05
7.7731041e-05
7.1797969e-05
6.2081419e-05
6.7248536e-05
7.7274021e-05
8.1167903e-05
7.9462329e-05
7.6887953e-05
8.2827674e-05
7.7920606e-05
7.4912821e-05
8.2244304e-05
7.156851e-05
6.8451418e-05
6.0399724e-05
5.7982745e-05
4.8331388e-05
8.4707973e-05
8.0333099e-05
7.9985428e-05
8.3570412e-05
8.47667e-05
8.1098943e-05
8.1489731e-05
8.4962402e-05
3.7860077e-05
3.9688606e-05
3.3374696e-05
3.2125229e-05
6.2510298e-05
6.2495774e-05
5.998421e-05
8.4598946e-05
7.7327467e-05
6.5143989e-05
7.1245966e-05
7.4624713e-05
7.3986588e-05
0.00022926379
0.00022579408
6.7024411e-05
5.5936843e-05
6.4468103e-05
5.3405068e-05
6.8345589e-05
5.5635076e-05
6.9265523e-05
5.8731071e-05
4.9302902e-05
4.5068957e-05
7.1341693e-05
5.909107e-05
7.105874e-05
5.920768e-05
4.0948409e-05
4.2203015e-05
3.9415941e-05
5.8272996e-05
5.1598393e-05
5.5944799e-05
7.5616376e-05
6.0720224e-05
6.975516e-05
5.5197729e-05
7.8245446e-05
7.5191499e-05
0.00025491205
0.00022402534
0.00021231131
0.00024111233
0.00022576101
0.00031503993
0.00019939845
3.733493e-05
0.00033615936
0.00037940536
0.00036039005
3.966546e-05
0.00034016238
0.00037178992
4.4640692e-05
5.3161635e-05
4.2251383e-05
3.0705143e-05
7.2540567e-05
0.000129198
0.00012738497
0.00021432796
3.9650434e-05
3.7859824e-05
0.00012916229
0.0001291716
6.5535925e-05
5.6117259e-05
3.18095e-05
3.2430671e-05
6.7669684e-05
6.6715739e-05
0.00011787703
9.3413507e-05
0.00012067504
0.00012616973
6.0273866e-05
5.1044859e-05
3.9874826e-05
4.8862288e-05
6.3935696e-05
7.6373595e-05
9.649356e-05
8.1014497e-05
0.00012838649
0.00010214681
0.00012197541
0.00024402852
0.00035831763
0.00034010918
8.2845143e-05
0.00012436433
0.00012405297
6.2382173e-05
0.00018625422
5.1957669e-05
6.6202839e-05
0.00027185626
7.9117689e-05
8.3010763e-05
0.00012439775
0.00012419835
5.1741345e-05
3.4217914e-05
3.5402406e-05
7.3876845e-05
0.00011365593
0.00011075327
0.00027677256
0.00011518105
8.7723888e-05
0.00012605361
0.00037956097
0.00012453546
7.9135517e-05
0.00011604761
0.00011809998
0.00037268804
0.00011799215
0.00012336657
5.2462792e-05
4.9480789e-05
5.4141836e-05
3.9738695e-05
4.9847588e-05
4.4729365e-05
3.6848139e-05
5.5643475e-05
5.9020766e-05
0.00030575198
9.9829415e-05
8.3937728e-05
8.3767729e-05
7.9077947e-05
0.00012471445
0.00010454036
0.00012377138
7.4211695e-05
0.00012524517
8.8706049e-05
9.392361e-05
9.2985061e-05
8.021586e-05
0.00012836254
0.00012892188
0.00012802759
8.2468821e-05
0.00012254218
0.00012344585
0.00012830197
0.00012647691
0.00012740121
5.5058644e-05
3.9252633e-05
5.5013783e-05
5.2692222e-05
3.8996295e-05
5.4643699e-05
0.00012843743
0.00012904513
0.00012832594
8.2903501e-05
0.00012359369
0.00012386741
0.0001290307
0.00012807973
0.00012815603
2.8343956e-05
7.0118587e-05
0.00010138141
0.00010692062
0.000117126
0.0001136382
0.00011342825
7.510941e-05
7.0484407e-05
9.7265197e-05
0.00010635469
0.00010750727
8.0243024e-05
0.000121346
0.00011986361
0.00011978509
0.00012285615
0.00012193231
8.0797609e-05
8.190537e-05
0.00012525658
0.00012466251
0.00012374268
5.6963905e-05
5.6852791e-05
5.3745933e-05
4.4196918e-05
4.6714941e-05
5.3728817e-05
4.8207743e-05
5.0806319e-05
4.1997322e-05
3.994408e-05
3.8860387e-05
4.2526299e-05
4.0230862e-05
4.6024194e-05
4.6671844e-05
4.3918301e-05
6.0418573e-05
6.7837694e-05
6.4095836e-05
6.6390255e-05
6.2599003e-05
7.1981673e-05
7.2130584e-05
6.7996343e-05
7.0395504e-05
7.462175e-05
9.110491e-05
9.1086756e-05
8.5977875e-05
7.6499783e-05
8.5916763e-05
8.1111762e-05
7.7907164e-05
0.00012273883
0.00011670184
0.00011168538
0.00011321583
0.00012719019
0.00012124935
0.00012045776
9.651729e-05
0.00010820841
0.0001022626
0.00010559086
9.9494687e-05
0.00011481751
0.00011511384
0.00010843019
3.6666359e-05
4.0033823e-05
3.9021189e-05
3.9644805e-05
4.264656e-05
4.2616419e-05
3.9579773e-05
4.2666813e-05
4.2608174e-05
3.8301217e-05
4.0689443e-05
4.1198975e-05
7.4542837e-05
3.5714434e-05
3.3988593e-05
3.7246805e-05
3.9635525e-05
4.2707467e-05
4.2630914e-05
3.9447153e-05
4.2250779e-05
4.2463888e-05
3.8678589e-05
4.1968992e-05
4.1619399e-05
6.5603538e-05
6.2935784e-05
5.5668502e-05
5.3453864e-05
0.00028746072
0.00025701692
0.0002898393
0.00019086735
0.00022510778
0.00019134926
0.00018637998
0.00025372041
0.00020933818
0.00028438874
0.00025850273
0.00023422938
0.00016429596
0.00017222373
0.00014273224
4.7448289e-05
5.0108563e-05
3.9499704e-05
3.6796368e-05
8.4504592e-05
8.4128593e-05
0.00018332767
0.00022155327
0.00018855872
8.4755196e-05
8.4785816e-05
6.2515105e-05
5.9393689e-05
2.8256059e-05
6.2179497e-05
7.1431412e-05
5.9998121e-05
5.7599352e-05
8.0104684e-05
6.7919557e-05
7.0853282e-05
0.00027469995
0.00025281084
0.00028494193
0.0003231003
0.00035941321
0.00032552402
0.00030811371
0.00035285547
0.00031979162
5.8758062e-05
6.8440476e-05
6.3913829e-05
5.496398e-05
5.1153873e-05
5.9605097e-05
7.0251709e-05
7.2508121e-05
7.7159706e-05
7.4555659e-05
8.6915203e-05
8.1722414e-05
4.5154701e-05
4.9382037e-05
4.3696923e-05
3.5868528e-05
4.5616376e-05
4.0769673e-05
0.00011055808
0.00011850061
0.00011241087
7.9369123e-05
0.00010186661
0.00010310906
6.3069694e-05
7.3427635e-05
0.00012597696
0.00012879266
0.00012956523
0.00012542138
0.00012820578
0.00012906271
0.0001201562
0.00012125129
0.00012379384
0.00012190411
0.00012706911
0.00012548562
5.7289598e-05
5.7989637e-05
4.7688757e-05
4.871968e-05
4.7393565e-05
4.7404723e-05
5.5376563e-05
4.7527233e-05
9.4371763e-05
0.00010883617
0.00010338528
8.9031107e-05
9.202703e-05
9.7762888e-05
0.00012390575
0.0001267841
0.00011455234
0.00011007778
0.00011308733
0.00010794215
0.00012412332
0.00011699754
0.00012957199
4.8219733e-05
5.5439029e-05
4.8225794e-05
5.528414e-05
4.7826148e-05
4.8074728e-05
4.5980473e-05
5.3571065e-05
4.6599188e-05
5.4121858e-05
4.7499593e-05
4.7089608e-05
5.5962561e-05
5.9732327e-05
5.9479485e-05
4.1034884e-05
3.9520865e-05
5.0103473e-05
4.814225e-05
7.087657e-05
6.7648327e-05
8.8467981e-05
0.0047814234
0.062160509
0.002671663
0.0010143132
0.00025343002
0.00073131189
0.00072087481
0.00020715138
0.00015337721
0.0086908666
0.00038071335
0.0021143373
0.00024855822
0.012186928
0.002080921
0.00061721247
0.00056222212
0.00029260089
0.00016620379
0.00083806014
0.00094865294
0.00022140334
0.00049089046
0.0027497874
0.0023393696
0.00027979224
0.067866202
0.0089578722
0.00020925838
0.00023884593
0.00022923043
0.0027158929
0.004639011
0.00091488839
0.0017156913
0.0010200715
0.00024498189
0.00032746201
0.0010967513
0.00021267095
0.0001958642
0.00033616545
0.00020176864
0.00055650068
0.0089354464
0.00022574326
0.0017677647
0.00054856846
0.00023313466
0.00032996241
0.00034228002
0.00023449196
0.00022932556
0.00040463558
0.0012538094
0.00020959294
0.00065410032
0.00028592703
0.0012181438
0.0012470516
0.0002549773
0.00022943663
0.00082692145
0.0013297668
0.00067747949
0.00056970751
0.00021424451
0.00018011624
0.00026694618
0.00012998996
0.17101458
0.017122838
4.3549714e-06
0.00010448005
3.6620565e-05
0.000169142
3.2199723e-05
5.108339e-05
0.00041331869
0.00038871936
1.5156393e-05
0.00011994331
8.6715538e-05
0.00014759394
3.3351417e-07
0.00019074634
2.593076e-07
0.00019085857
1.9555457e-05
2.0931089e-05
7.5457316e-08
0.00016400416
8.1122444e-08
0.000171283
1.8392583e-05
1.7577906e-05
2.8231449e-07
0.00018489358
4.3417664e-07
0.00017820343
1.5468013e-05
7.6635005e-08
0.00015704458
7.9475286e-08
0.00015040947
1.6166992e-05
1.6854748e-05
7.3930895e-08
0.00013809687
0.00014409889
2.598018e-05
2.2675438e-05
6.7976329e-05
7.3614912e-05
7.1700605e-05
7.0209319e-05
7.3115118e-05
7.5193387e-05
7.1817617e-05
7.6549286e-05
5.9948119e-05
4.8054561e-05
6.7833199e-05
6.7466034e-05
6.4980755e-05
7.0312807e-05
6.4405864e-05
6.5518886e-05
6.9175239e-05
5.825853e-05
7.3274146e-05
6.9075458e-05
7.197811e-05
7.033559e-05
5.6622218e-05
5.6321912e-05
5.8862693e-05
5.4168261e-05
6.2328918e-05
5.8570953e-05
6.6544719e-05
6.0893978e-05
0.00019084718
6.4464085e-05
6.2064505e-05
5.929481e-05
6.1605441e-05
4.9777603e-05
5.771244e-05
4.7460524e-05
5.5116533e-05
6.5988932e-05
6.7232651e-05
6.4307314e-05
6.3102347e-05
4.9309789e-05
5.4835099e-05
5.6889635e-05
5.2496056e-05
5.6965938e-05
5.7217637e-05
5.911449e-05
6.0371717e-05
0.00017403802
4.336676e-05
4.5323479e-05
5.2644958e-05
5.0379077e-05
6.3551828e-05
5.2502933e-05
6.0545647e-05
5.5871658e-05
3.7231197e-05
3.5321831e-05
3.2176899e-05
3.3657703e-05
2.8196297e-05
3.0780891e-05
2.9448658e-05
3.9696828e-05
4.3401076e-05
4.1944042e-05
4.0400541e-05
5.2317478e-05
4.8931349e-05
0.0042749007
0.0036681931
0.0061345906
0.0045086093
0.0046726603
0.0089712478
0.0079038821
0.0028409143
0.0020061327
0.0034106458
0.0018871422
0.00081972284
0.00027851075
0.00068371961
0.00080944168
0.00036290645
0.00019445699
0.00027165898
9.7311823e-05
0.00010899207
0.0002203045
8.4590253e-05
7.931211e-05
9.7243397e-05
7.0246243e-05
0.00025961536
0.0002353316
0.00043117448
0.00037578143
8.9453716e-05
0.00010303812
0.0072278988
0.0039882811
0.0036768631
0.00015409534
0.00014856206
3.8940809e-07
1.6681375e-05
0.00018361437
9.3136565e-05
0.00016944395
9.9953791e-05
0.00024851419
0.00022935266
0.00013530092
0.00012607328
0.00018161617
0.00016842854
2.9773161e-05
3.0924255e-05
4.9016032e-05
5.5291076e-05
5.7582793e-05
4.7110242e-05
4.1895303e-05
3.5972147e-05
4.03126e-05
2.6888196e-05
2.9923414e-05
3.4651771e-05
3.102852e-05
2.5962361e-05
2.3409417e-05
2.2627513e-05
0.00013416815
0.00012442485
0.00026958576
4.5671556e-05
5.1543716e-05
0.00021193253
4.3890403e-05
3.901449e-05
0.00014537437
2.5004053e-05
2.7835321e-05
0.00011761438
2.4140873e-05
2.1760918e-05
0.00024693789
3.6500344e-05
0.00026538546
3.7923842e-05
0.00029072553
5.3689906e-05
0.00019607294
3.3481114e-05
3.7535744e-05
0.00015638662
3.224841e-05
2.8866301e-05
0.00010985093
2.103233e-05
5.1339336e-05
4.9316983e-05
4.3776456e-05
4.2090945e-05
3.7476276e-05
3.607392e-05
3.2223775e-05
3.1051272e-05
2.7830611e-05
2.6847326e-05
2.4144313e-05
2.3319091e-05
2.1041753e-05
2.0344047e-05
0.00019917746
0.00019708437
8.6888902e-05
0.000156567
0.0001819254
0.00010739518
4.7117444e-05
5.1011317e-05
5.3101175e-05
5.3116265e-05
5.5306904e-05
4.5293411e-05
4.5291391e-05
4.3555349e-05
4.0302387e-05
3.4627509e-05
3.7352357e-05
3.8799351e-05
3.87866e-05
2.5912241e-05
2.7856975e-05
2.8868029e-05
2.8825996e-05
3.336166e-05
3.3388439e-05
3.2182735e-05
2.9886442e-05
2.5023094e-05
2.5074712e-05
2.4223504e-05
2.2570403e-05
2.1879321e-05
2.1818923e-05
0.00021368187
0.00019112219
0.00019448605
0.00020464078
8.115521e-05
0.00014484823
0.00011553018
4.753806e-05
3.9282912e-05
4.949377e-05
4.4421994e-05
4.2188118e-05
3.7796965e-05
4.0566235e-05
3.3545124e-05
2.5907666e-05
2.147912e-05
2.6850588e-05
2.3944893e-05
2.3312787e-05
2.0760541e-05
2.2520205e-05
1.8688232e-05
3.6632537e-05
3.8026722e-05
4.621847e-05
3.4770311e-05
2.8777602e-05
3.6121742e-05
3.231145e-05
3.1068832e-05
2.775044e-05
2.9943596e-05
2.4803583e-05
2.0335021e-05
1.8082394e-05
4.738416e-05
4.5539414e-05
4.0483521e-05
3.8946345e-05
3.4732332e-05
3.3448751e-05
2.9928842e-05
2.8857092e-05
2.5907863e-05
2.5007453e-05
2.2527577e-05
2.1768245e-05
1.9675189e-05
0.0002137402
0.000168143
4.9025774e-05
5.1023984e-05
4.3554363e-05
4.1891833e-05
3.5950386e-05
3.733694e-05
2.6842449e-05
2.7813051e-05
3.215021e-05
3.0993757e-05
2.4170457e-05
2.3352663e-05
2.1099733e-05
0.00022940816
0.00021078673
0.00022608672
0.00015560008
4.095018e-05
4.2583875e-05
3.6280093e-05
3.4926695e-05
2.2283228e-05
2.3068375e-05
2.0023422e-05
1.936437e-05
2.9925914e-05
3.1052286e-05
2.6700064e-05
2.5762704e-05
1.7461528e-05
0.0011858468
0.0033826631
0.035028883
0.00040632356
0.00089257781
0.0001771167
0.0002137306
0.00027154657
0.0010575484
0.00013412269
0.00038564464
0.00023197871
3.4433681e-05
5.4640893e-05
5.090839e-05
4.6160959e-05
8.7419881e-05
0.00028645852
7.8606575e-05
3.5819695e-05
3.7678643e-05
0.0039938715
0.0045350823
0.0033878734
0.0010251341
5.3335483e-05
7.0125142e-05
7.4966551e-05
7.7760114e-05
9.6173385e-05
0.00010272268
1.3380952e-05
1.3312121e-05
1.5867659e-05
1.741808e-05
1.981054e-05
1.7980921e-05
2.0471158e-05
1.3420435e-05
1.371537e-05
1.5423262e-05
1.4275695e-05
1.3745907e-05
7.1057409e-05
7.5892381e-05
1.2867901e-05
7.3740264e-05
1.2789676e-05
8.4045005e-05
1.4743509e-05
1.6179921e-05
1.3097346e-05
1.453123e-05
1.4367235e-05
1.2751361e-05
9.0144809e-05
1.8407653e-05
1.6704103e-05
1.9023342e-05
1.8417345e-05
1.7826843e-05
1.6190518e-05
1.5687274e-05
1.4289651e-05
1.3859213e-05
1.2713878e-05
1.2330181e-05
1.1170859e-05
1.2447569e-05
1.312003e-05
1.1180281e-05
1.3591713e-05
1.2454741e-05
1.1153562e-05
1.2365411e-05
1.3490701e-05
1.1154044e-05
1.2359195e-05
1.3361195e-05
1.1108843e-05
1.3341437e-05
1.2305006e-05
6.1788558e-05
5.7935511e-05
1.5307534e-05
1.6357427e-05
1.6877268e-05
1.6808982e-05
1.9110546e-05
1.9175706e-05
1.8566123e-05
1.7350286e-05
1.9745842e-05
2.1160989e-05
1.4848089e-05
1.5024083e-05
1.4651618e-05
1.3613477e-05
6.6600404e-05
1.2835563e-05
1.1308333e-05
1.2819938e-05
1.1419422e-05
1.363668e-05
1.1638623e-05
1.4166024e-05
1.469079e-05
1.1385546e-05
1.5187959e-05
1.2471477e-05
1.5678558e-05
1.3909253e-05
1.4637032e-05
1.2455074e-05
1.7816202e-05
1.5821509e-05
1.7248803e-05
1.4344051e-05
1.9665478e-05
1.6333891e-05
1.90338e-05
1.7259265e-05
1.6713886e-05
1.5202886e-05
1.4737605e-05
1.344865e-05
1.3063045e-05
1.145314e-05
1.1360179e-05
1.0678249e-05
1.1892487e-05
1.1152975e-05
1.2400833e-05
1.1149905e-05
1.237548e-05
1.1147343e-05
1.2348921e-05
1.1132321e-05
1.233119e-05
6.6584081e-05
1.5787952e-05
1.6288137e-05
1.8499964e-05
1.7913591e-05
2.0409136e-05
1.441187e-05
1.4000905e-05
1.1444934e-05
1.1424952e-05
1.3717735e-05
1.7291204e-05
1.3040025e-05
1.3439885e-05
1.4175742e-05
1.5296945e-05
1.4825088e-05
1.6904597e-05
0.023106669
0.0022637821
0.01629981
0.00017259367
0.00036895722
0.0013232717
0.0014448251
0.0038589928
9.6532383e-05
0.0030053085
0.00082702427
0.00017408977
0.00064978409
0.0008309098
0.001741855
0.00023690555
0.00060064475
0.0009034574
0.0001934209
0.00061833526
0.00036586765
0.00010871816
0.0010888433
0.00013067751
0.00015041696
0.00042714157
0.00032005027
0.021672582
0.0081507864
0.010673128
0.034845377
0.0068406082
4.129193e-05
0.00038182806
0.00040050472
0.00013262148
5.7942771e-05
0.000267287
0.00025327992
0.00032933513
0.00044430613
0.00020148852
0.0003129378
0.00021457578
1.0504904e-06
0.00036378414
1.063883e-06
8.7807163e-07
0.00041829451
1.0470178e-06
0.00016876207
2.6714105e-06
2.546206e-07
0.00028190076
7.8376892e-07
8.273614e-07
0.00023988161
7.3806538e-07
6.6726031e-07
0.00034628595
9.7006401e-07
1.018402e-06
0.00043500184
1.9046517e-06
1.056742e-06
0.00018741702
2.8056389e-07
2.0464109e-07
2.4256237e-05
2.2515323e-05
0.00029712425
9.2019384e-07
8.7378923e-07
0.0002270321
3.3004121e-07
5.3371711e-07
1.9409888e-05
4.8318007e-05
4.6265267e-05
4.1956447e-05
4.4159601e-05
4.9809455e-05
5.2499261e-05
6.7163115e-05
5.7479802e-05
2.3582758e-05
2.2482703e-05
2.9935152e-05
3.3900148e-05
3.5793059e-05
3.9821556e-05
3.7773579e-05
3.205544e-05
3.0082439e-05
2.5327537e-05
2.7624596e-05
0.00022712705
0.00022198485
0.00015775157
0.00020709208
0.0001430908
0.00016601125
0.00021689972
7.6795499e-05
8.0672437e-05
8.0474447e-05
7.6986338e-05
0.00023386255
7.682976e-05
8.0672591e-05
8.0478608e-05
7.6995677e-05
0.0001732153
0.00019007843
0.00012966891
7.6422232e-05
7.9481065e-05
8.0076601e-05
7.586444e-05
7.6889562e-05
7.4150587e-05
7.3974533e-05
7.7077621e-05
7.4209575e-05
7.8692313e-05
7.7714436e-05
7.5125904e-05
7.6514774e-05
7.9357117e-05
8.0072598e-05
7.6138983e-05
7.3699169e-05
7.7400246e-05
7.0033835e-05
7.5582963e-05
0.00022183532
7.017523e-05
6.8951261e-05
6.6218812e-05
7.4669304e-05
2.5390179e-05
2.707062e-05
0.00018314449
0.00016685458
0.00020289529
0.00019979404
6.3365301e-05
6.6314979e-05
6.0037747e-05
6.2949818e-05
7.2980266e-05
7.287233e-05
7.6282104e-05
7.582878e-05
0.00055944379
5.5487593e-05
0.0005936664
0.00058253494
4.5196176e-05
0.00053007908
5.5519429e-05
4.5202184e-05
0.00048652087
0.00035474781
0.00052061064
5.1539839e-05
0.00031347691
0.00056017408
4.2144435e-05
4.2835707e-05
0.00038357339
0.00033817819
9.9902049e-05
8.6392033e-05
0.00010318466
0.00011319251
3.5987325e-05
4.7972788e-05
0.00035647194
5.2496605e-05
0.00033853021
3.511115e-05
4.4684432e-05
4.4890077e-05
6.9585941e-05
8.2168449e-05
0.00012943464
0.00019059131
0.00015700578
6.5843962e-05
4.6837163e-05
0.00021037577
0.00020715078
0.00019528005
0.00020499394
0.00015776535
0.00019818208
0.00021030936
0.00020953917
0.00020756934
3.8180365e-05
4.4345016e-05
0.00014914385
0.00012699924
0.00010156356
0.00012023736
5.5084222e-05
7.5250672e-05
9.5883024e-05
8.0131248e-05
4.4260538e-05
0.00052777367
0.0004053484
0.00038524689
8.5371087e-05
5.4827798e-05
8.5171615e-05
0.00059306508
0.00020680062
0.0002040097
0.00016191368
0.00020469797
0.00020270278
0.00015459192
0.0004800619
0.00013174715
8.3921115e-05
5.5473555e-05
7.6571019e-05
0.00042771705
0.00018742316
0.00014508975
4.3423145e-05
7.9342791e-05
5.3069173e-05
0.00058108686
0.00019227613
0.00020190141
0.00013561213
0.00014311078
0.00012875115
0.00012225837
0.00043016955
0.00010529524
0.00012471831
8.8104768e-05
9.3233424e-05
0.00029350236
9.93547e-05
8.1487772e-05
5.1205223e-05
5.8118345e-05
8.3210626e-05
7.8550873e-05
3.7424307e-05
5.4403232e-05
8.101944e-05
8.4501909e-05
0.00016939878
0.00020770424
0.00018408043
0.00020199961
0.00017394405
0.00018430597
0.00019462226
7.6521789e-05
7.2995869e-05
7.5975881e-05
7.3555454e-05
0.00022896739
0.00020988284
0.00022833611
0.00020878143
0.00022533058
0.00022712602
7.4352009e-05
7.2300578e-05
7.1417916e-05
7.525137e-05
0.00021243982
0.00019909814
0.00021651452
0.00020230955
0.0002229567
0.00022001504
6.3442015e-05