/*--------------------------------*- C++ -*----------------------------------*\
  =========                 |
  \\      /  F ield         | OpenFOAM: The Open Source CFD Toolbox
   \\    /   O peration     | Website:  https://openfoam.org
    \\  /    A nd           | Version:  8
     \\/     M anipulation  |
\*---------------------------------------------------------------------------*/
/*   Windows 32 and 64 bit porting by blueCAPE: http://www.bluecape.com.pt   *\
|  Based on Windows porting (2.0.x v4) by Symscape: http://www.symscape.com   |
\*---------------------------------------------------------------------------*/
FoamFile
{
    version     2.0;
    format      ascii;
    class       labelListList;
    location    "constant/vegetation";
    object      finalAgglom;
}
// * * * * * * * * * * * * * * * * * * * * * * * * * * * * * * * * * * * * * //


12
(
0()
0()
0()
16{0}

362
(
0
1
2
2
0
1
3
4
5
6
7
8
3
9
10
4
11
12
13
14
15
9
16
9
15
17
18
16
19
20
21
22
23
23
24
25
22
26
27
24
28
29
30
31
32
33
22
25
18
6
6
6
14
34
35
36
37
37
38
37
39
40
41
41
42
32
31
43
44
16
45
46
47
48
48
1
49
49
3
7
7
7
14
50
50
10
10
22
51
52
53
54
32
55
15
15
55
19
19
19
56
46
45
57
46
56
47
46
58
35
48
59
31
49
49
60
60
60
53
61
36
60
62
32
62
62
31
47
63
63
64
64
2
12
29
8
35
34
8
12
27
26
18
24
65
66
67
67
27
68
68
51
58
5
69
70
70
25
41
50
14
36
4
36
38
38
38
37
61
61
71
71
45
53
53
53
56
65
56
45
65
65
66
65
45
72
72
57
17
72
56
53
39
39
0
29
29
30
48
35
63
1
1
13
3
73
73
9
74
74
11
11
11
13
41
13
40
41
41
42
62
62
21
21
75
55
20
20
17
17
17
16
16
16
74
74
20
21
21
21
63
63
47
25
72
17
26
64
64
27
67
26
66
67
24
28
28
28
30
48
30
33
33
33
70
70
18
50
50
34
37
37
37
39
39
36
40
40
40
42
62
42
43
43
43
44
44
44
17
45
2
2
2
2
71
14
73
73
69
69
69
51
51
51
52
52
52
32
54
54
55
54
54
57
25
25
71
22
22
57
58
58
58
58
57
35
68
68
59
59
59
61
61
61
67
67
66
75
75
75
5
5
5
36
4
4
18
23
48
10
48
48
23
34
50
34
12
0
12
8
29
29
)


43
(
0
0
0
0
0
0
1
1
1
1
1
0
0
0
1
0
0
0
1
1
0
0
0
1
1
1
0
0
0
1
1
1
1
1
1
1
1
1
0
0
0
1
0
)


134
(
0
1
2
3
4
5
6
7
8
9
10
11
12
13
14
15
16
17
18
19
20
21
22
23
24
25
26
27
28
29
30
31
32
33
34
35
36
37
38
39
40
41
42
43
44
45
46
47
48
49
50
51
52
53
54
55
56
57
58
59
60
61
62
63
64
65
66
67
68
69
70
71
72
73
74
75
76
77
78
79
80
81
82
83
84
85
86
87
88
89
90
91
92
93
94
95
96
97
98
99
100
101
102
103
104
105
106
107
108
109
110
111
112
113
114
115
116
117
118
119
120
121
122
123
124
125
126
127
128
129
130
131
132
133
)


632
(
0
1
2
3
4
1
4
5
2
5
0
6
7
7
2
2
2
2
1
2
8
9
9
9
9
2
5
9
9
9
4
0
0
10
10
0
0
6
6
7
7
7
7
2
2
2
2
2
2
10
10
11
3
11
10
10
11
11
11
11
1
12
7
12
5
5
8
8
12
8
7
3
9
9
9
9
9
4
9
4
4
4
4
7
7
7
7
4
4
4
4
9
9
9
9
9
9
13
9
9
9
9
9
5
2
2
2
9
9
9
9
4
2
14
14
0
10
11
10
10
8
11
3
3
10
11
10
10
11
11
11
11
3
3
3
5
1
7
1
1
2
8
8
8
14
6
14
14
10
6
10
6
0
0
0
0
0
6
0
10
10
10
6
10
0
0
0
0
6
6
11
3
3
3
10
3
10
11
3
3
3
3
11
3
11
10
10
10
10
10
10
11
11
11
11
11
11
11
11
11
11
11
11
11
11
13
1
12
12
12
1
7
7
7
1
7
7
12
12
7
5
5
8
8
8
8
8
8
8
7
5
8
3
3
3
5
5
8
4
0
4
1
1
13
2
11
11
7
4
9
4
1
1
1
1
1
9
4
4
4
9
5
5
4
5
5
11
6
3
13
7
7
1
1
1
4
4
0
0
0
0
6
6
6
6
6
6
14
6
6
1
1
1
1
1
1
1
1
1
1
1
2
2
2
2
2
2
2
13
2
11
11
11
11
11
11
1
13
13
13
13
13
13
13
1
12
7
12
12
12
14
14
14
14
4
4
4
4
4
7
4
9
13
9
9
13
4
4
4
4
4
4
9
4
2
5
2
2
2
5
2
2
2
5
13
4
5
5
5
4
4
0
0
14
14
14
14
14
14
4
4
4
3
0
11
0
11
11
13
13
1
13
13
13
13
13
13
7
7
7
7
7
7
14
14
14
14
0
0
0
6
6
6
6
6
6
3
3
3
13
1
7
1
1
2
8
8
8
8
2
2
0
0
0
0
0
6
14
10
6
6
0
0
0
0
6
6
0
10
6
11
11
10
0
0
0
0
0
0
0
0
0
0
0
6
14
14
14
6
14
6
6
14
14
14
14
6
6
6
13
4
4
5
5
5
11
3
3
3
3
11
11
3
3
3
11
11
10
11
10
11
11
10
11
10
10
10
10
11
11
11
11
11
11
11
11
0
11
0
11
11
11
11
11
11
1
1
13
13
13
13
1
1
13
1
13
13
13
13
13
13
13
13
13
13
13
12
12
12
12
12
12
12
1
12
12
12
7
7
7
7
7
7
12
12
12
7
7
5
5
5
5
8
8
8
12
8
12
8
12
8
5
5
8
5
8
7
8
8
12
8
14
14
14
14
14
14
3
3
3
3
3
14
14
14
14
14
3
3
3
5
5
12
13
12
12
12
12
12
12
13
12
13
13
5
5
5
5
5
1
13
8
)


283
(
0
1
2
3
4
5
6
7
8
9
10
11
12
13
14
15
16
17
18
19
20
21
22
23
24
25
26
27
28
29
30
31
32
33
34
35
36
37
38
39
40
41
42
43
44
45
46
47
48
49
50
51
52
53
54
55
56
57
58
59
60
61
62
63
64
65
66
67
68
69
70
71
72
73
74
75
76
77
78
79
80
81
82
83
84
85
86
87
88
89
90
91
92
93
94
95
96
97
98
99
100
101
102
103
104
105
106
107
108
109
110
111
112
113
114
115
116
117
118
119
120
121
122
123
124
125
126
127
128
129
130
131
132
133
134
135
136
137
138
139
140
141
142
143
144
145
146
147
148
149
150
151
152
153
154
155
156
157
158
159
160
161
162
163
164
165
166
167
168
169
170
171
172
173
174
175
176
177
178
179
180
181
182
183
184
185
186
187
188
189
190
191
192
193
194
195
196
197
198
199
200
201
202
203
204
205
206
207
208
209
210
211
212
213
214
215
216
217
218
219
220
221
222
223
224
225
226
227
228
229
230
231
232
233
234
235
236
237
238
239
240
241
242
243
244
245
246
247
248
249
250
251
252
253
254
255
256
257
258
259
260
261
262
263
264
265
266
267
268
269
270
271
272
273
274
275
276
277
278
279
280
281
282
)


93
(
0
1
2
3
4
5
6
7
8
9
10
11
12
13
14
15
16
17
18
19
20
21
22
23
24
25
26
27
28
29
30
31
32
33
34
35
36
37
38
39
40
41
42
43
44
45
46
47
48
49
50
51
52
53
54
55
56
57
58
59
60
61
62
63
64
65
66
67
68
69
70
71
72
73
74
75
76
77
78
79
80
81
82
83
84
85
86
87
88
89
90
91
92
)


352
(
0
1
2
3
4
5
6
7
8
9
10
11
12
13
14
15
16
17
18
19
20
21
22
23
24
25
26
27
28
29
30
31
32
33
34
35
36
37
38
39
40
41
42
43
44
45
46
47
48
49
50
51
52
53
54
55
56
57
58
59
60
61
62
63
64
65
66
67
68
69
70
71
72
73
74
75
76
77
78
79
80
81
82
83
84
85
86
87
88
89
90
91
92
93
94
95
96
97
98
99
100
101
102
103
104
105
106
107
108
109
110
111
112
113
114
115
116
117
118
119
120
121
122
123
124
125
126
127
128
129
130
131
132
133
134
135
136
137
138
139
140
141
142
143
144
145
146
147
148
149
150
151
152
153
154
155
156
157
158
159
160
161
162
163
164
165
166
167
168
169
170
171
172
173
174
175
176
177
178
179
180
181
182
183
184
185
186
187
188
189
190
191
192
193
194
195
196
197
198
199
200
201
202
203
204
205
206
207
208
209
210
211
212
213
214
215
216
217
218
219
220
221
222
223
224
225
226
227
228
229
230
231
232
233
234
235
236
237
238
239
240
241
242
243
244
245
246
247
248
249
250
251
252
253
254
255
256
257
258
259
260
261
262
263
264
265
266
267
268
269
270
271
272
273
274
275
276
277
278
279
280
281
282
283
284
285
286
287
288
289
290
291
292
293
294
295
296
297
298
299
300
301
302
303
304
305
306
307
308
309
310
311
312
313
314
315
316
317
318
319
320
321
322
323
324
325
326
327
328
329
330
331
332
333
334
335
336
337
338
339
340
341
342
343
344
345
346
347
348
349
350
351
)


109
(
0
1
2
3
4
5
6
7
8
9
10
11
12
13
14
15
16
17
18
19
20
21
22
23
24
25
26
27
28
29
30
31
32
33
34
35
36
37
38
39
40
41
42
43
44
45
46
47
48
49
50
51
52
53
54
55
56
57
58
59
60
61
62
63
64
65
66
67
68
69
70
71
72
73
74
75
76
77
78
79
80
81
82
83
84
85
86
87
88
89
90
91
92
93
94
95
96
97
98
99
100
101
102
103
104
105
106
107
108
)

)


// ************************************************************************* //
