/*--------------------------------*- C++ -*----------------------------------*\
  =========                 |
  \\      /  F ield         | OpenFOAM: The Open Source CFD Toolbox
   \\    /   O peration     | Website:  https://openfoam.org
    \\  /    A nd           | Version:  8
     \\/     M anipulation  |
\*---------------------------------------------------------------------------*/
/*   Windows 32 and 64 bit porting by blueCAPE: http://www.bluecape.com.pt   *\
|  Based on Windows porting (2.0.x v4) by Symscape: http://www.symscape.com   |
\*---------------------------------------------------------------------------*/
FoamFile
{
    version     2.0;
    format      ascii;
    class       labelListList;
    location    "constant/vegetation";
    object      globalFaceFaces;
}
// * * * * * * * * * * * * * * * * * * * * * * * * * * * * * * * * * * * * * //


228
(

2673
(
17
18
19
20
21
22
23
1028
1665
1668
1669
1794
1796
1797
1823
1824
1825
1826
3391
3392
3395
3396
3397
3398
3399
3400
3401
3402
3403
3404
3405
3406
3407
3408
3409
3410
3411
3412
3413
3414
3415
3416
3417
3418
3419
3420
3421
3422
3423
3424
3425
3426
3427
3428
3429
3430
3431
3432
3433
3434
3435
3436
3437
3438
3439
3440
3441
3442
3443
3444
3445
3446
3447
3448
3449
3450
3451
3452
3453
3454
3455
3456
3457
3458
3459
3460
3461
3462
3463
3464
3465
3466
3467
3468
3469
3470
3471
3472
3473
3474
3475
3476
3477
3478
3479
3480
3481
3482
3483
3484
3485
3486
3487
3488
3489
3490
3491
3492
3493
3494
3495
3496
3497
3498
3499
3500
3501
3502
3503
3504
3505
3506
3507
3508
3509
3510
3511
3512
3513
3514
3515
3516
3517
3518
3519
3520
3521
3522
3523
3524
3525
3539
3540
3541
3548
3549
3550
3551
3554
3555
3559
3572
3573
3574
3575
3578
3579
3580
3581
3599
3600
3601
3602
3603
3604
3605
3606
3607
3608
3609
3610
3611
3612
3613
3614
3615
3616
3617
3618
3619
3620
3621
3622
3623
3624
3625
3626
3627
3628
3629
3630
3631
3632
3633
3634
3635
3636
3637
3638
3639
3640
3641
3642
3643
3644
3645
3646
3647
3648
3649
3650
3651
3652
3653
3654
3655
3656
3657
3658
3659
3660
3661
3662
3663
3664
3665
3666
3667
3668
3669
3670
3671
3672
3673
3674
3675
3676
3677
3678
3679
3680
3681
3682
3684
3685
3686
3687
3688
3689
3690
3691
3692
3693
3694
3695
3696
3697
3699
3700
3701
3702
3703
3704
3705
3706
3707
3708
3709
3710
3711
3714
3715
3716
3717
3718
3719
3720
3721
3723
3724
3725
3726
3727
3728
3730
3731
3732
3733
3734
3735
3736
3737
3738
3739
3740
3741
3742
3743
3744
3745
3746
3747
3748
3749
3750
3751
3752
3753
3754
3755
3756
3757
3758
3759
3760
3761
3762
3763
3764
3765
3766
3767
3769
3770
3771
3772
3773
3774
3775
3776
3777
3778
3779
3780
3781
3782
3783
3784
3786
3788
3789
3790
3791
3793
3794
3795
3796
3797
3798
3799
3800
3801
3802
3803
3804
3805
3806
3807
3808
3809
3810
3811
3812
3813
3814
3815
3816
3817
3818
3819
3820
3821
3822
3823
3824
3825
3826
3827
3828
3829
3830
3831
3832
3833
3834
3835
3836
3837
3838
3839
3840
3841
3842
3843
3844
3845
3846
3847
3848
3849
3850
3851
3852
3853
3854
3855
3856
3857
3858
3859
3860
3864
3866
3867
3871
3872
3873
3874
3875
3876
3877
3878
3879
3880
3881
3882
3883
3884
3885
3886
3887
3888
3889
3890
3891
3892
3893
3894
3895
3896
3897
3898
3899
3900
3901
3902
3903
3904
3905
3906
3907
3908
3909
3910
3911
3912
3913
3914
3915
3916
3917
3918
3919
3920
3921
3922
3923
3924
3925
3926
3927
3928
3929
3930
3931
3932
3933
3934
3935
3936
3937
3938
3939
3940
3941
3942
3943
3944
3945
3946
3947
3953
3954
3955
3956
3957
3958
3961
3966
3968
3983
3989
3998
4013
4028
4036
4199
4200
4290
4291
4292
4293
4294
4295
4296
4297
4298
4299
4300
4301
4302
4303
4304
4305
4306
4307
4310
4325
4328
4329
4333
4334
4335
4336
4337
4338
4339
4340
4344
4345
4346
4347
4348
4349
4350
4351
4352
4353
4354
4355
4356
4357
4358
4359
4360
4417
4418
4433
4434
4436
4515
4516
4540
4541
4543
4544
4545
4547
4548
4549
4550
4551
4553
4554
4556
4557
4558
4559
4560
4561
4562
4563
4564
4567
4568
4569
4573
4574
4575
4576
4577
4578
4579
4580
4582
4583
4586
4587
4588
4590
4591
4592
4593
4595
4596
4707
4709
4710
4712
4717
4719
4754
4765
4770
4784
4790
4799
5092
5093
5094
5095
5096
5097
5098
5099
5100
5101
5102
5103
5104
5105
5106
5107
5108
5109
5110
5111
5112
5113
5114
5115
5116
5117
5118
5119
5120
5121
5122
5123
5124
5125
5126
5127
5128
5129
5130
5131
5132
5133
5134
5135
5136
5137
5138
5139
5140
5141
5142
5143
5144
5145
5146
5147
5148
5149
5150
5151
5152
5153
5154
5155
5156
5157
5158
5159
5160
5161
5162
5163
5164
5165
5166
5167
5168
5169
5170
5171
5172
5173
5174
5175
5176
5177
5178
5179
5180
5181
5182
5183
5184
5185
5186
5187
5188
5189
5190
5191
5192
5193
5194
5195
5196
5197
5198
5199
5200
5201
5202
5203
5204
5205
5206
5207
5208
5209
5210
5211
5212
5213
5214
5215
5216
5217
5218
5219
5220
5221
5222
5223
5224
5225
5226
5227
5228
5229
5230
5231
5232
5233
5234
5235
5236
5237
5238
5239
5240
5241
5242
5243
5249
5255
5257
5258
5259
5260
5261
5264
5265
5266
5267
5268
5269
5270
5271
5272
5273
5274
5275
5284
5292
5294
5300
5301
5303
5304
5305
5306
5307
5308
5311
5312
5313
5314
5315
5316
5317
5318
5319
5320
5321
5322
5323
5324
5338
5354
5355
5356
5357
5361
5362
5363
5369
5370
5371
5372
5373
5374
5375
5376
5377
5378
5379
5380
5381
5382
5391
5392
5402
5406
5411
5415
5425
5426
5427
5428
5429
5432
5433
5434
5435
5436
5437
5438
5439
5448
5449
5450
5459
5460
5465
5466
5467
5468
5469
5470
5477
5478
5479
5480
5481
5482
5483
5484
5508
5509
5510
5511
5512
5513
5514
5515
5516
5523
5524
5525
5536
5537
5538
5539
5540
5541
5547
5548
5549
5550
5551
5552
5553
5554
5555
5556
5557
5558
5559
5560
5561
5562
5563
5564
5565
5566
5567
5568
5569
5570
5571
5572
5573
5574
5575
5576
5577
5578
5579
5580
5581
5582
5583
5584
5585
5586
5587
5588
5589
5590
5591
5592
5593
5594
5595
5596
5597
5598
5599
5600
5601
5602
5603
5604
5605
5606
5607
5608
5609
5610
5611
5612
5613
5614
5615
5616
5617
5618
5619
5620
5621
5622
5623
5624
5625
5626
5628
5629
5630
5631
5632
5634
5635
5637
5638
5639
5640
5641
5643
5644
5645
5646
5647
5649
5650
5652
5653
5654
5655
5656
5657
5658
5659
5660
5661
5662
5663
5664
5665
5666
5667
5668
5669
5670
5671
5672
5673
5674
5675
5676
5677
5678
5679
5680
5681
5682
5683
5684
5685
5686
5687
5688
5689
5690
5691
5692
5693
5694
5695
5696
5697
5698
5699
5700
5701
5702
5703
5704
5705
5707
5708
5709
5710
5711
5713
5714
5715
5716
5717
5718
5719
5720
5721
5722
5723
5725
5726
5727
5728
5729
5731
5732
5733
5734
5735
5736
5737
5738
5739
5740
5741
5743
5744
5745
5746
5747
5748
5749
5750
5752
5753
5754
5755
5756
5757
5758
5759
5760
5761
5762
5763
5764
5765
5766
5767
5768
5770
5772
5773
5774
5775
5776
5777
5778
5779
5780
5781
5782
5783
5785
5788
5791
5794
5796
5797
5798
5799
5800
5801
5802
5803
5804
5805
5806
5807
5808
5809
5810
5812
5813
5814
5815
5816
5817
5818
5819
5820
5822
5823
5824
5825
5826
5827
5828
5833
5834
5839
5842
5843
5844
5845
5846
5847
5848
5849
5850
5851
5852
5853
5854
5855
5856
5857
5858
5859
5860
5861
5862
5863
5864
5869
5870
5871
5872
5873
5874
5875
5876
5877
5878
5879
5880
5881
5882
5883
5884
5885
5886
5887
5888
5889
5890
5891
5892
5893
5894
5895
5896
5900
5901
5902
5903
5904
5905
5908
5909
5910
5911
5912
5913
5916
5917
5918
5919
5920
5921
5922
5923
5924
5925
5926
5927
5928
5929
5930
5931
5932
5933
5934
5935
5936
5940
5941
5942
5943
5944
5948
5949
5955
5956
5957
5960
5963
5964
5965
5966
5967
5968
5969
5970
5971
5972
5973
5974
5975
5976
5977
5979
5980
5982
5985
5986
5987
5988
5989
5990
5991
5992
5993
5994
5995
5996
5997
5998
5999
6000
6001
6002
6003
6004
6006
6007
6008
6009
6010
6011
6012
6013
6014
6015
6016
6017
6019
6020
6021
6022
6023
6024
6025
6026
6027
6028
6029
6030
6031
6032
6033
6034
6035
6036
6037
6039
6040
6041
6042
6043
6044
6045
6046
6047
6048
6049
6050
6051
6052
6053
6054
6055
6056
6057
6058
6059
6060
6061
6062
6063
6064
6065
6066
6067
6068
6075
6077
6078
6079
6080
6081
6082
6083
6084
6086
6087
6088
6089
6090
6091
6092
6093
6094
6095
6096
6099
6100
6101
6102
6103
6104
6105
6106
6107
6108
6109
6110
6111
6112
6113
6114
6115
6116
6117
6118
6119
6120
6121
6122
6123
6124
6125
6126
6127
6128
6129
6130
6131
6132
6133
6134
6135
6136
6137
6138
6139
6140
6141
6142
6143
6144
6145
6146
6147
6148
6149
6150
6151
6152
6153
6154
6158
6159
6160
6161
6162
6167
6168
6169
6170
6176
6177
6178
6183
6187
6188
6189
6201
6202
6203
6204
6205
7260
7263
7265
7274
7276
7277
7282
7283
7284
7286
7287
7289
7290
7291
7294
7295
7296
7297
7298
7300
7301
7302
7309
7329
7330
7331
7381
7382
7383
7384
7385
7386
7387
7388
7397
7400
7403
7410
7416
7418
7419
7420
7422
7425
7426
7428
7430
7433
7434
7436
7438
7439
7442
7445
7448
7449
7450
7452
7453
7454
7457
7458
7459
7460
7461
7462
7464
7465
7466
7467
7485
7486
7491
7492
7493
7500
7501
7502
7506
7507
7511
7512
7514
7518
7522
7526
7531
7535
7538
7542
7546
7550
7553
7554
7555
7556
7557
7559
7560
7561
7576
7577
7578
7579
7580
7581
7582
7583
7584
7585
7586
7587
7588
7589
7590
7591
7592
7593
7594
7595
7596
7597
7598
7599
7600
7601
7602
7603
7604
7605
7606
7607
7611
7617
7643
7644
7645
7646
7647
7648
7649
7650
7651
7652
7653
7654
7655
7656
7657
7658
7662
7663
7686
7687
7688
7689
7690
7691
7692
7693
7694
7695
7696
7699
7702
7705
7708
7711
7714
7717
7720
7723
7726
7728
7729
7730
7731
7733
7735
7736
7737
7738
7739
7740
7741
7742
7743
7744
7745
7746
7747
7748
7749
7750
7754
7769
7770
7771
7772
7773
7774
7775
7776
7790
7791
7792
7793
7794
7795
7803
7804
7805
7808
7810
7823
7826
7827
7829
7833
7834
7835
7836
7839
7840
7841
7844
7846
7847
7848
7855
7856
7857
7858
7919
7920
7921
7922
7928
7929
7937
7939
7951
7953
7956
7957
7960
7961
7963
7965
7967
7969
7972
7975
7977
7978
7979
7980
7981
7982
7983
7984
7985
7995
8001
8002
8003
8007
8010
8013
8016
8020
8024
8028
8032
8036
8042
8044
8045
8046
8048
8049
8050
8052
8053
8054
8056
8057
8058
8060
8061
8081
8082
8103
8104
8105
8106
8107
8108
8109
8110
8111
8112
8117
8118
8119
8120
8123
8131
8132
8133
8134
8135
8136
8137
8138
8142
8158
8159
8160
8161
8162
8163
8176
8177
8178
8179
8180
8181
8182
8184
8187
8190
8193
8196
8199
8202
8206
8210
8211
8213
8214
8216
8217
8219
8220
8222
8223
8236
8243
8244
8245
8246
8247
8250
8251
8256
8257
8258
8259
8269
8270
8271
8278
8279
8280
8289
8290
8292
8293
8294
8295
8296
8297
8298
8299
8300
8301
8302
8303
8304
8305
8306
8307
8308
8309
8310
8311
8312
8313
8314
8315
8316
8317
8318
8319
8320
8321
8322
8323
8324
8325
8326
8327
8328
8329
8330
8331
8332
8333
8334
8335
8336
8337
8338
8339
8340
8341
8342
8343
8344
8345
8346
8347
8348
8349
8350
8351
8352
8353
8354
8355
8356
8357
8358
8359
8360
8361
8362
8363
8364
8365
8366
8367
8368
8369
8370
8371
8372
8373
8374
8375
8376
8377
8378
8379
8380
8381
8382
8383
8384
8385
8386
8388
8390
8392
8395
8441
8442
8447
8448
8449
8450
8451
8454
8455
8456
8457
8461
8465
8469
8497
8498
8499
8500
8501
8502
8503
8504
8505
8506
8507
8508
8511
8512
8513
8514
8517
8518
8519
8520
8534
8535
8536
8537
8538
8547
8548
8601
8602
8603
8604
8613
8614
8615
8616
8617
8618
8619
8620
8668
8669
8670
8671
8672
8673
8674
8675
8676
8677
8678
8679
8680
8681
8682
8683
8684
8685
8686
8687
8688
8689
8690
8691
8692
8693
8694
8695
8696
8697
8698
8699
8700
8701
8702
8703
8704
8705
8706
8707
8708
8709
8710
8711
8712
8713
8714
8715
8716
8717
8718
8719
8720
8721
8722
8723
8724
8725
8726
8727
8728
8729
8730
8731
8732
8733
8734
8735
8736
8737
8738
8739
8740
8741
8742
8743
8744
8745
8746
8747
8748
8749
8750
8751
8753
8754
8756
8757
8758
8759
8760
8762
8763
8764
8765
8766
8768
8769
8771
8772
8773
8774
8775
8776
8778
8779
8780
8781
8782
8783
8784
8785
8786
8787
8788
8789
8790
8791
8792
8793
8794
8795
8796
8797
8798
8799
8800
8801
8802
8803
8804
8805
8806
8807
8808
8809
8810
8811
8812
8813
8814
8815
8817
8818
8819
8820
8821
8822
8823
8824
8825
8826
8827
8828
8829
8830
8831
8832
8833
8834
8835
8836
8837
8838
8839
8841
8842
8843
8844
8845
8846
8847
8848
8849
8850
8851
8852
8853
8854
8855
8856
8857
8858
8859
8860
8861
8862
8863
8864
8865
8867
8868
8869
8870
8871
8872
8873
8874
8875
8876
8877
8880
8881
8882
8883
8884
8885
8886
8887
8888
8889
8890
8891
8892
8893
8894
8895
8896
8897
8898
8900
8901
8902
8903
8904
8906
8907
8908
8909
8910
8911
8912
8913
8914
8915
8916
8918
8919
8920
8921
8922
8923
8924
8925
8927
8928
8929
8930
8931
8934
8935
8936
8937
8938
8939
8940
8941
8942
8943
8944
8945
8946
8947
8948
8949
8950
8951
8952
8953
8954
8955
8956
8957
8958
8962
8963
8964
8965
8966
8967
8968
8969
8970
8971
8972
8973
8974
8975
8977
8978
8980
8981
8982
8983
8984
8985
8986
8987
8988
8989
8990
8991
8992
8994
8995
8996
8997
8999
9000
9002
9003
9007
9008
9010
9011
9013
9014
9016
9017
9019
9020
9024
9025
9027
9028
9030
9031
9033
9034
9035
9036
9044
9046
9047
9048
9049
9050
9051
9052
9053
9054
9055
9056
9057
9058
9059
9060
9061
9062
9063
9064
9065
9066
9067
9068
9069
9070
9071
9072
9073
9074
9075
9076
9077
9078
9079
9080
9081
9082
9083
9084
9085
9086
9087
9088
9089
9090
9095
9096
9097
9098
9099
9100
9101
9102
9103
9104
9105
9106
9107
9108
9109
9110
9111
9112
9113
9114
9115
9116
9117
9118
9119
9120
9121
9122
9123
9124
9125
9126
9127
9128
9129
9130
9131
9132
9133
9134
9135
9136
9137
9138
9139
9140
9141
9142
9143
9144
9145
9146
9147
9148
9149
9150
9151
9152
9153
9154
9155
9156
9157
9158
9159
9160
9161
9162
9163
9164
9165
9166
9167
9168
9169
9170
9171
9172
9175
9176
9177
9178
9179
9180
9204
9208
9217
9243
9244
9245
9246
9247
10135
10136
10153
10154
10160
10161
10162
10163
10170
10173
10179
10180
10189
10315
10327
10348
10349
10350
10351
10355
10356
10384
10385
10387
10388
10416
10417
10418
10419
10420
10421
10432
10452
10454
10457
10546
10547
10548
10549
10558
10559
10560
10561
10566
10567
10568
10569
10570
10571
10572
10573
10574
10575
10576
10577
10583
10584
10617
10618
10619
10621
10692
10693
10694
10695
10696
10697
10712
10713
10720
10721
10744
10750
10751
10765
10780
10781
10782
10783
10784
10790
10791
10792
10793
10794
10799
10801
10802
10803
10880
10883
10884
10888
10917
10918
10925
10972
10989
10990
11006
11012
11013
11020
11021
11039
11042
11043
11044
11045
11046
11056
11058
11103
11104
11105
11106
11131
11134
11135
11136
11137
11138
11139
11140
11141
11142
11143
11144
11145
11146
11147
11148
11149
11150
11151
11152
11153
11154
11155
11156
11157
11158
11159
11160
11161
11162
11163
11164
11165
11166
11167
11168
11169
11170
11171
11172
11173
11174
11175
11176
11177
11178
11179
11180
11181
11182
11183
11184
11185
11186
11192
11193
11194
11202
11203
11204
11205
11206
11207
11208
11209
11210
11211
11214
11215
11217
11218
11219
11220
11241
11242
11244
11245
11246
11247
11248
11249
11250
11251
11252
11253
11254
11255
11256
11257
11258
11259
11260
11261
11262
11263
11264
11265
11266
11267
11268
11269
11270
11271
11272
11273
11274
11275
11284
11285
11286
11287
11310
11346
11348
11349
11350
)


2084
(
17
19
20
22
23
3391
3392
3393
3394
3447
3448
3449
3450
3451
3452
3453
3454
3455
3456
3457
3458
3459
3460
3461
3462
3463
3464
3465
3466
3467
3468
3469
3470
3471
3472
3473
3474
3475
3476
3477
3478
3479
3480
3481
3482
3483
3484
3485
3486
3487
3488
3489
3490
3491
3492
3493
3494
3495
3496
3497
3498
3499
3500
3501
3502
3503
3504
3505
3506
3507
3508
3509
3510
3511
3512
3513
3514
3515
3516
3517
3518
3519
3520
3521
3522
3523
3524
3525
3550
3554
3555
3556
3573
3574
3575
3578
3579
3580
3581
3599
3600
3601
3602
3603
3604
3605
3606
3607
3608
3609
3610
3611
3612
3613
3614
3615
3616
3617
3618
3619
3620
3621
3622
3623
3624
3625
3626
3627
3628
3629
3630
3631
3632
3633
3634
3635
3636
3640
3641
3642
3643
3644
3645
3646
3647
3648
3649
3650
3651
3652
3653
3654
3655
3656
3657
3659
3660
3661
3662
3663
3664
3665
3666
3667
3668
3669
3670
3671
3672
3673
3674
3675
3676
3677
3678
3680
3681
3682
3684
3685
3686
3687
3688
3689
3690
3691
3692
3693
3694
3695
3696
3697
3699
3700
3701
3702
3703
3704
3705
3707
3708
3709
3710
3711
3726
3727
3728
3730
3731
3732
3733
3734
3735
3736
3737
3738
3739
3740
3741
3742
3743
3744
3745
3746
3747
3748
3749
3750
3751
3752
3753
3754
3755
3756
3757
3758
3765
3766
3767
3769
3770
3771
3772
3773
3778
3779
3780
3781
3782
3783
3788
3790
3791
3793
3794
3795
3796
3797
3798
3799
3800
3801
3802
3803
3804
3805
3806
3807
3808
3809
3810
3811
3812
3813
3814
3815
3816
3817
3818
3819
3820
3821
3822
3823
3824
3825
3826
3827
3828
3829
3830
3831
3832
3833
3834
3835
3836
3837
3838
3839
3840
3841
3842
3843
3844
3845
3846
3847
3848
3849
3850
3851
3852
3853
3854
3855
3856
3857
3858
3859
3860
3866
3867
3871
3872
3873
3874
3875
3876
3877
3878
3879
3880
3881
3882
3883
3884
3885
3886
3887
3888
3889
3890
3891
3892
3893
3894
3895
3896
3897
3898
3899
3900
3901
3902
3903
3904
3905
3906
3907
3908
3909
3910
3911
3912
3913
3914
3915
3916
3917
3918
3919
3920
3921
3922
3923
3925
3926
3927
3928
3929
3930
3931
3932
3933
3934
3935
3936
3937
3938
3939
3940
3941
3942
3943
3944
3953
3954
3955
3956
3957
3958
3966
3968
4028
4034
4036
4057
4059
4081
4146
4539
4595
4596
4707
4709
4710
4712
4717
4719
5091
5127
5128
5129
5130
5131
5132
5133
5134
5135
5136
5137
5138
5139
5140
5141
5142
5143
5144
5145
5146
5147
5148
5149
5150
5151
5152
5153
5154
5155
5156
5157
5158
5159
5160
5161
5162
5163
5164
5165
5166
5167
5168
5169
5170
5171
5172
5173
5174
5175
5176
5177
5178
5179
5180
5181
5182
5183
5184
5185
5186
5187
5188
5189
5190
5191
5192
5193
5194
5195
5196
5197
5198
5199
5200
5201
5202
5203
5204
5205
5206
5207
5208
5209
5210
5211
5212
5213
5214
5215
5216
5217
5218
5219
5220
5221
5222
5223
5224
5225
5226
5227
5228
5229
5230
5231
5232
5233
5234
5235
5236
5237
5238
5239
5240
5241
5242
5243
5249
5255
5257
5258
5259
5260
5261
5264
5265
5266
5267
5268
5269
5270
5271
5272
5273
5274
5275
5284
5292
5294
5300
5301
5303
5304
5305
5306
5307
5308
5311
5312
5313
5314
5315
5316
5317
5318
5319
5320
5321
5322
5323
5324
5338
5354
5355
5356
5357
5361
5362
5363
5369
5370
5371
5372
5373
5374
5375
5376
5377
5378
5379
5380
5381
5382
5391
5392
5402
5406
5411
5415
5425
5426
5427
5428
5429
5432
5433
5434
5435
5436
5437
5438
5439
5448
5449
5450
5459
5460
5465
5466
5467
5468
5469
5470
5477
5478
5479
5480
5481
5482
5483
5484
5508
5509
5510
5511
5512
5513
5514
5515
5516
5523
5524
5525
5536
5537
5538
5539
5540
5541
5547
5548
5549
5550
5551
5552
5553
5554
5555
5556
5557
5558
5559
5560
5561
5562
5563
5564
5565
5566
5567
5568
5569
5570
5571
5572
5573
5574
5575
5576
5577
5578
5579
5580
5581
5582
5583
5584
5585
5586
5587
5588
5589
5590
5591
5592
5593
5594
5595
5596
5597
5598
5599
5600
5601
5602
5603
5604
5605
5606
5607
5608
5609
5610
5611
5612
5613
5614
5615
5616
5617
5618
5619
5620
5621
5622
5623
5624
5625
5626
5628
5629
5630
5631
5632
5634
5635
5637
5638
5639
5640
5641
5643
5644
5645
5646
5647
5649
5650
5652
5653
5654
5655
5656
5657
5658
5659
5660
5661
5662
5663
5664
5665
5666
5667
5668
5669
5670
5671
5672
5673
5674
5675
5676
5677
5678
5679
5680
5681
5682
5683
5684
5685
5686
5687
5688
5689
5690
5691
5692
5693
5694
5695
5696
5697
5698
5699
5700
5701
5702
5703
5704
5705
5707
5708
5709
5710
5711
5713
5714
5715
5716
5717
5718
5719
5720
5721
5722
5723
5725
5726
5727
5728
5729
5731
5732
5733
5734
5735
5736
5737
5738
5739
5740
5741
5743
5744
5745
5746
5747
5748
5749
5750
5752
5753
5754
5755
5756
5757
5758
5759
5760
5761
5762
5763
5764
5765
5766
5767
5768
5770
5772
5773
5774
5775
5776
5777
5778
5779
5780
5781
5782
5783
5785
5788
5791
5794
5796
5797
5798
5799
5800
5801
5802
5803
5804
5805
5806
5807
5808
5809
5810
5812
5813
5814
5815
5816
5817
5818
5819
5820
5822
5823
5824
5825
5826
5827
5828
5833
5834
5839
5842
5843
5844
5845
5846
5847
5848
5849
5850
5851
5852
5853
5854
5855
5856
5857
5858
5859
5860
5861
5862
5863
5864
5869
5870
5871
5872
5873
5874
5875
5876
5877
5878
5879
5880
5881
5882
5883
5884
5885
5886
5887
5888
5889
5890
5891
5892
5893
5894
5895
5896
5900
5901
5902
5903
5904
5905
5908
5909
5910
5911
5912
5913
5916
5917
5918
5919
5920
5921
5922
5923
5924
5925
5926
5927
5928
5929
5930
5931
5932
5933
5934
5935
5936
5940
5941
5942
5943
5944
5948
5949
5955
5956
5957
5962
6039
6040
6041
6042
6043
6044
6045
6046
6047
6048
6049
6050
6051
6052
6053
6054
6055
6056
6057
6058
6059
6060
6061
6062
6063
6064
6065
6066
6067
6068
6072
6074
6075
6077
6078
6079
6080
6081
6082
6083
6084
6085
6086
6087
6088
6089
6090
6091
6092
6093
6094
6095
6096
6099
6100
6101
6102
6103
6104
6105
6106
6107
6108
6109
6110
6111
6112
6122
6123
6124
6125
6126
6127
6128
6129
6130
6131
6143
6144
6145
6147
6148
6149
6150
6151
6152
6153
6154
6159
6161
6162
6176
6183
6187
6188
6189
7300
7301
7302
7303
7304
7305
7306
7307
7308
7309
7310
7311
7312
7313
7314
7315
7316
7317
7318
7319
7320
7321
7322
7323
7324
7325
7326
7327
7328
7329
7330
7331
7332
7333
7334
7335
7336
7337
7338
7339
7340
7341
7342
7343
7344
7345
7346
7347
7348
7349
7350
7351
7352
7353
7354
7355
7356
7357
7358
7359
7360
7361
7362
7363
7364
7365
7366
7367
7368
7369
7370
7371
7372
7373
7374
7375
7376
7377
7378
7379
7380
7381
7383
7385
7386
7389
7393
7394
7402
7403
7404
7405
7406
7407
7408
7409
7410
7411
7412
7413
7414
7415
7416
7418
7419
7420
7422
7440
7443
7448
7449
7450
7453
7454
7463
7464
7465
7466
7467
7468
7470
7472
7473
7475
7477
7478
7479
7480
7481
7482
7483
7484
7485
7486
7511
7512
7514
7518
7522
7526
7555
7556
7560
7563
7564
7565
7566
7567
7568
7569
7570
7571
7572
7573
7574
7575
7576
7577
7578
7579
7580
7581
7582
7583
7584
7588
7603
7604
7605
7606
7613
7614
7643
7644
7645
7646
7647
7648
7649
7659
7660
7661
7662
7663
7664
7665
7666
7668
7670
7671
7672
7673
7674
7675
7676
7677
7678
7679
7680
7681
7682
7683
7684
7685
7686
7699
7702
7705
7708
7711
7731
7735
7736
7737
7738
7748
7749
7750
7769
7770
7771
7772
7777
7778
7779
7780
7782
7783
7784
7785
7786
7787
7788
7789
7795
7801
7855
7859
7860
7861
7862
7863
7864
7865
7866
7868
7869
7871
7872
7873
7874
7875
7876
7877
7878
7879
7880
7881
7882
7883
7884
7885
7886
7887
7888
7889
7890
7891
7892
7893
7898
7899
7901
7902
7903
7904
7905
7906
7907
7908
7909
7910
7911
7912
7913
7914
7915
7916
7930
7931
7932
7933
7934
7935
7936
7945
7949
7986
7987
7989
7991
7992
7996
7998
8074
8077
8078
8080
8083
8084
8085
8086
8087
8088
8089
8145
8164
8166
8168
8170
8172
8174
8289
8290
8291
8317
8318
8319
8320
8321
8322
8323
8324
8325
8326
8327
8328
8329
8330
8331
8332
8333
8334
8335
8336
8337
8338
8339
8340
8341
8342
8343
8344
8345
8346
8347
8348
8349
8350
8351
8352
8353
8354
8355
8356
8357
8358
8359
8360
8361
8362
8363
8364
8365
8366
8367
8368
8369
8370
8371
8372
8373
8374
8375
8376
8377
8378
8379
8380
8381
8382
8383
8384
8385
8388
8447
8448
8449
8450
8454
8455
8456
8457
8497
8498
8499
8500
8501
8502
8503
8504
8505
8506
8507
8508
8511
8512
8513
8514
8517
8518
8519
8520
8535
8536
8617
8618
8619
8620
8668
8669
8670
8671
8672
8673
8674
8675
8676
8677
8678
8679
8680
8681
8682
8683
8684
8685
8686
8687
8688
8689
8690
8691
8692
8693
8694
8695
8696
8697
8698
8699
8700
8701
8702
8703
8704
8705
8706
8707
8708
8709
8710
8711
8712
8713
8714
8715
8716
8717
8718
8719
8720
8721
8722
8723
8724
8725
8726
8727
8728
8729
8730
8731
8732
8733
8734
8735
8736
8737
8738
8739
8740
8741
8742
8743
8744
8745
8746
8747
8748
8749
8750
8751
8753
8754
8756
8757
8758
8759
8760
8762
8763
8764
8765
8766
8768
8769
8771
8772
8773
8774
8775
8776
8778
8779
8780
8781
8782
8783
8784
8785
8786
8787
8788
8789
8790
8791
8792
8793
8794
8795
8796
8797
8798
8799
8800
8801
8802
8803
8804
8805
8806
8807
8808
8809
8810
8811
8812
8813
8814
8815
8817
8818
8819
8820
8821
8822
8823
8824
8825
8826
8827
8828
8829
8830
8831
8832
8833
8834
8835
8836
8837
8838
8839
8841
8842
8843
8844
8845
8846
8847
8848
8849
8850
8851
8852
8853
8854
8855
8856
8858
8896
8897
8898
8900
8901
8902
8903
8904
8906
8907
8908
8909
8910
8911
8912
8913
8914
8915
8916
8918
8919
8920
8921
8922
8923
8924
8925
8927
8928
8929
8930
8931
8934
8935
8936
8937
8938
8939
8940
8941
8942
8943
8944
8945
8946
8947
8948
8950
8951
8952
8953
8954
8955
8956
8957
8958
8962
8963
8964
8965
8966
8967
8968
8969
8970
8971
8972
8973
8974
8975
8977
8978
8980
8981
8982
8983
8984
8985
8986
8987
8988
8989
8990
8991
8992
8994
8995
8996
8997
8999
9000
9002
9003
9007
9008
9010
9011
9013
9014
9016
9017
9019
9020
9035
9036
9044
9046
9047
9048
9049
9050
9051
9052
9053
9054
9055
9056
9057
9058
9059
9060
9061
9062
9063
9064
9065
9066
9070
9071
9072
9073
9074
9075
9076
9077
9078
9079
9080
9081
9082
9083
9084
9085
9086
9087
9088
9089
9090
9095
9096
9097
9098
9099
9100
9101
9102
9103
9104
9105
9106
9107
9108
9109
9110
9111
9112
9113
9114
9115
9117
9118
9119
9120
9121
9122
9123
9124
9125
9126
9127
9128
9138
9141
9142
9144
9161
9162
9163
9164
9165
9166
9167
9168
9169
9170
9171
9172
9175
9176
9177
9178
9179
9180
9247
10189
10201
10202
10213
10214
10226
10229
10253
10254
10255
10256
10257
10262
10264
10265
10266
10267
10268
10269
10270
10271
10272
10273
10274
10275
10279
10281
10287
10289
10293
10295
10298
10299
10300
10301
10302
10303
10304
10305
10307
10363
10424
10425
10503
10505
10507
10508
10510
10511
10512
10513
10515
10516
10517
10518
10519
10544
10566
10618
10650
10651
10652
10653
10655
10656
10658
10659
10660
10661
10704
10746
10750
10751
10802
10803
10809
10811
10815
10817
10830
10831
10832
10833
10834
10835
10839
10841
10845
10847
10848
10850
10851
10852
10853
10854
10855
10856
10857
10858
10859
10864
10865
10867
10874
10875
10877
11020
11021
11091
11093
11094
11139
11140
11141
11142
11143
11145
11146
11147
11148
11149
11150
11151
11152
11153
11154
11155
11156
11157
11158
11159
11160
11161
11162
11163
11166
11185
11194
11202
11203
11204
11205
11206
11207
11208
11209
11210
11211
11219
11220
11252
11253
11260
11261
11262
11263
11310
)


1600
(
3391
3392
3393
3394
3447
3448
3449
3450
3452
3453
3457
3458
3459
3460
3461
3462
3463
3464
3465
3466
3467
3468
3470
3473
3475
3476
3477
3478
3481
3484
3487
3490
3491
3492
3493
3494
3495
3497
3500
3503
3504
3505
3506
3515
3516
3517
3621
3968
4539
4595
4709
4710
4719
5091
5127
5129
5130
5131
5132
5133
5134
5135
5136
5137
5138
5139
5140
5141
5142
5143
5144
5145
5146
5147
5148
5149
5150
5151
5152
5153
5154
5155
5156
5157
5158
5159
5160
5161
5162
5163
5164
5165
5166
5167
5168
5169
5170
5171
5172
5173
5174
5175
5176
5177
5178
5179
5180
5181
5182
5183
5184
5185
5186
5187
5188
5189
5190
5191
5192
5193
5194
5195
5196
5197
5198
5199
5200
5201
5202
5203
5204
5205
5206
5207
5208
5209
5210
5211
5212
5213
5214
5215
5216
5217
5218
5219
5220
5221
5222
5223
5224
5225
5226
5227
5228
5229
5230
5231
5232
5233
5234
5235
5236
5237
5238
5241
5257
5258
5260
5265
5267
5268
5269
5270
5271
5272
5275
5292
5306
5308
5311
5312
5314
5315
5319
5320
5324
5357
5361
5362
5369
5371
5372
5373
5374
5375
5376
5377
5378
5379
5391
5425
5436
5437
5438
5439
5477
5479
5480
5508
5514
5547
5548
5549
5550
5551
5552
5553
5554
5555
5556
5557
5558
5559
5560
5561
5562
5563
5564
5565
5566
5567
5568
5569
5570
5571
5572
5573
5574
5575
5576
5577
5578
5579
5580
5581
5582
5583
5584
5585
5586
5587
5588
5589
5590
5591
5592
5593
5594
5595
5596
5598
5599
5600
5601
5602
5603
5604
5605
5607
5608
5609
5610
5611
5612
5613
5614
5615
5616
5617
5618
5619
5620
5621
5622
5623
5624
5625
5626
5628
5629
5630
5631
5632
5634
5635
5637
5638
5639
5640
5641
5643
5644
5645
5646
5647
5650
5652
5653
5654
5655
5656
5657
5658
5660
5661
5662
5663
5664
5665
5666
5667
5668
5669
5670
5671
5672
5673
5675
5676
5677
5678
5679
5680
5681
5682
5683
5684
5685
5686
5687
5688
5689
5690
5691
5692
5693
5694
5695
5696
5697
5698
5700
5701
5702
5703
5704
5705
5707
5708
5709
5710
5711
5713
5714
5715
5716
5717
5718
5719
5720
5721
5722
5723
5725
5726
5727
5728
5729
5731
5732
5733
5734
5735
5736
5737
5738
5740
5741
5743
5744
5745
5746
5747
5748
5749
5750
5752
5753
5754
5755
5756
5757
5758
5759
5760
5761
5762
5763
5764
5765
5766
5767
5768
5772
5773
5774
5775
5776
5777
5778
5779
5780
5781
5782
5783
5796
5797
5798
5799
5800
5801
5802
5803
5804
5805
5806
5807
5808
5809
5810
5812
5813
5814
5815
5818
5819
5820
5824
5825
5826
5827
5828
5844
5845
5846
5847
5848
5849
5850
5851
5852
5853
5854
5855
5856
5857
5858
5859
5860
5861
5862
5863
5864
5869
5870
5871
5872
5873
5874
5875
5876
5877
5878
5879
5880
5882
5883
5884
5885
5886
5887
5888
5889
5890
5891
5892
5893
5894
5900
5901
5902
5903
5904
5905
5908
5909
5910
5911
5912
5913
5916
5917
5918
5919
5920
5921
5922
5923
5924
5925
5926
5927
5928
5929
5930
5931
5932
5933
5934
5935
5936
5940
5962
6039
6040
6041
6042
6043
6044
6045
6046
6047
6048
6049
6050
6051
6052
6053
6054
6055
6056
6060
6062
6066
6067
6068
6069
6070
6071
6072
6073
6074
6075
6076
6078
6080
6083
6084
6085
6086
6087
6088
6091
6099
6100
6105
6106
6107
6108
6155
6156
6161
6162
6172
6176
6182
6187
6189
7300
7303
7304
7305
7306
7307
7308
7309
7310
7311
7312
7313
7314
7315
7316
7317
7318
7319
7320
7321
7322
7323
7324
7325
7326
7327
7328
7329
7330
7331
7332
7333
7334
7335
7336
7337
7338
7339
7340
7341
7342
7343
7344
7345
7346
7347
7348
7349
7350
7351
7352
7353
7354
7355
7356
7357
7358
7359
7360
7361
7362
7363
7364
7365
7366
7367
7368
7369
7370
7371
7372
7373
7374
7375
7376
7377
7378
7379
7380
7390
7391
7392
7394
7402
7403
7404
7405
7406
7407
7408
7409
7410
7411
7412
7413
7414
7415
7441
7446
7463
7468
7469
7470
7471
7472
7473
7474
7475
7476
7477
7478
7479
7481
7483
7484
7506
7509
7557
7558
7563
7564
7565
7566
7567
7568
7569
7570
7571
7572
7573
7574
7575
7607
7608
7609
7610
7619
7620
7664
7665
7666
7667
7668
7669
7670
7671
7672
7673
7674
7675
7676
7677
7678
7680
7681
7682
7683
7684
7685
7732
7751
7752
7753
7779
7780
7781
7782
7783
7784
7785
7788
7789
7795
7798
7801
7803
7855
7857
7858
7859
7860
7861
7862
7863
7864
7865
7866
7868
7869
7871
7872
7873
7874
7875
7876
7877
7878
7879
7880
7881
7882
7883
7884
7885
7886
7887
7888
7889
7890
7891
7892
7893
7898
7899
7901
7902
7903
7904
7905
7906
7907
7908
7909
7910
7911
7912
7913
7914
7915
7916
7923
7925
7928
7929
7930
7931
7932
7933
7934
7935
7936
7945
7949
7953
7956
7957
7974
7975
7976
7986
7987
7988
7989
7990
7991
7992
7996
7998
8002
8003
8007
8016
8020
8074
8077
8078
8080
8083
8084
8085
8086
8087
8088
8089
8106
8108
8109
8110
8129
8130
8145
8164
8165
8166
8167
8168
8169
8170
8171
8172
8173
8174
8175
8176
8177
8178
8181
8187
8190
8193
8244
8245
8246
8272
8273
8274
8275
8276
8277
8278
8279
8280
8281
8289
8290
8291
8317
8318
8319
8320
8321
8322
8323
8324
8325
8326
8327
8328
8329
8330
8331
8332
8333
8334
8335
8336
8337
8338
8339
8340
8341
8342
8343
8344
8345
8346
8347
8348
8349
8350
8351
8352
8353
8354
8355
8356
8357
8358
8359
8360
8361
8362
8363
8364
8365
8366
8367
8368
8369
8370
8371
8372
8373
8374
8375
8376
8377
8378
8379
8380
8381
8382
8383
8384
8385
8512
8517
8518
8519
8547
8548
8668
8669
8672
8673
8674
8675
8676
8677