/*--------------------------------*- C++ -*----------------------------------*\
  =========                 |
  \\      /  F ield         | OpenFOAM: The Open Source CFD Toolbox
   \\    /   O peration     | Website:  https://openfoam.org
    \\  /    A nd           | Version:  8
     \\/     M anipulation  |
\*---------------------------------------------------------------------------*/
/*   Windows 32 and 64 bit porting by blueCAPE: http://www.bluecape.com.pt   *\
|  Based on Windows porting (2.0.x v4) by Symscape: http://www.symscape.com   |
\*---------------------------------------------------------------------------*/
FoamFile
{
    version     2.0;
    format      ascii;
    class       scalarListList;
    location    "constant/vegetation";
    object      kcLAIboundary;
}
// * * * * * * * * * * * * * * * * * * * * * * * * * * * * * * * * * * * * * //


5
(

228
(
0
0
0
0.18293064
0.59790438
0.43570747
0.15875496
0.014600462
1000
0
1000
0
0.81931914
0
0
0.10316297
1.8281814
0.065714578
2.0973211
1.3809206
1000
1000
1000
0.0056332011
0.054486366
0.47863825
2.2672507
0
0
0.36300594
0
0
1.90235
1.4072311
0.58949178
0
0
1.679278
0.20238183
0.16638967
2.1642268
0
0
2.040053
0.29749818
0.72056864
0.58610559
1.4924101
0.0087677371
0
1.2123045
0
0.23414747
1.2055031
1.8679454
0.56050772
1.5516813
1.7894957
1.7606908
1.3569992
0.0069422824
1.5476131
0.96137552
2.0812019
0.00039811356
0
1.2219004
0.70034237
0.0049684247
0
0.00082750112
0.82219667
0.86516751
2.0561387
0.27729198
1000
0.57696293
0
0
1000
1000
1000
1000
1000
1000
0
0
0
0.00079318574
0
0.0020592833
1000
1000
1000
1000
1000
1000
1000
1000
1000
1000
1000
1000
1000
1000
1000
1000
1000
1000
1000
1000
1000
1000
1000
1000
1000
1000
1000
1000
1000
1000
1000
1000
1000
1000
1000
1000
1000
1000
1000
1000
1000
1000
1000
1000
1000
1000
1000
1000
1000
1000
1000
1000
1000
1000
1000
1000
1000
1000
1000
1000
1000
1000
1000
1000
1000
1000
1000
1000
1000
1000
1000
1000
1000
1000
1000
1000
1000
1000
1000
1000
1000
1000
1000
1000
1000
1000
1000
1000
1000
1000
1000
1000
1000
1000
1000
1000
1000
1000
1000
1000
1000
1000
1000
1000
1000
1000
1000
1000
1000
1000
1000
1000
1000
1000
1000
1000
1000
1000
1000
1000
1000
1000
2.011875
0.8012374
0.10967304
0.1552697
1.4219504
0.25298893
0.72047706
1.5761424
0.36407947
0.46894699
0.48310985
0.39100789
0.53263034
0.30053024
0.26440041
)


228
(
0
0
0
0.077674129
0.39038916
0.54726697
2.2700001e-06
1000
1000
0
1000
0.010804954
0.8974696
0
0
0.014059842
1000
1000
2.173925
1.0919701
1000
1000
1000
0.029097394
0.61594324
0.50234763
1.298724
0
0
0.41103763
0
0
1.4554941
1000
0.25307244
0
0
1.8036272
0.91554704
0.73247649
2.0265713
0
0
1000
0.11187198
0.30701635
0.35654757
0.78860706
0.040240419
0
0.91267625
0.00078917133
0.67433767
1.7084033
1.9479273
1000
1000
1.5224816
0.84224995
0.29405646
0.066303107
0.92630558
1.9167875
1000
0.011786393
0.00052971363
0.87868871
0.46949377
0.0098604085
0.0017136293
0.015540683
0.1993015
0.2206059
1.4544248
0.17345551
1000
1000
0
0
1000
1000
1000
1000
1000
1000
0
3.3092399e-07
0
0
0
0
1000
1000
1000
1000
1000
1000
1000
1000
1000
1000
1000
1000
1000
1000
1000
1000
1000
1000
1000
1000
1000
1000
1000
1000
1000
1000
1000
1000
1000
1000
1000
1000
1000
1000
1000
1000
1000
1000
1000
1000
1000
1000
1000
1000
1000
1000
1000
1000
1000
1000
1000
1000
1000
1000
1000
1000
1000
1000
1000
1000
1000
1000
1000
1000
1000
1000
1000
1000
1000
1000
1000
1000
1000
1000
1000
1000
1000
1000
1000
1000
1000
1000
1000
1000
1000
1000
1000
1000
1000
1000
1000
1000
1000
1000
1000
1000
1000
1000
1000
1000
1000
1000
1000
1000
1000
1000
1000
1000
1000
1000
1000
1000
1000
1000
1000
1000
1000
1000
1000
1000
1000
1000
1.8934535
0.73198449
0.13823052
0.20211895
1000
0.3036924
0.52395519
1.8393751
0.3900402
1000
0.16604836
0.33352036
0.78318278
0.29964297
0.25230002
)


228
(
0
0
0
0.017041583
0.26987883
1000
0.0006216365
1000
1000
0
1000
0.4757148
0.67155588
0
0
0.021082906
1000
1000
1.4035306
0.29655852
1000
1000
1000
0.33906057
1.7809254
0.30608561
0.52882027
0
0
0.20559668
0
0
1000
1000
0.18071038
0
0
1000
1000
1.7940755
1000
0
0
1000
0.066124465
1000
0.16499248
0.41366321
0.14611113
0
0.53573722
0.0053413602
0.64779045
1.4911891
1000
1000
1000
1.0255853
0.43185822
0.1563601
0.24907999
1000
2.1821205
1000
0.24894513
0
0.53811214
0.17467672
0.0079997249
0.035761666
0.38642025
0.0041476332
0.10628558
0.76327755
0.04062712
1000
1000
0
0
1000
1000
1000
1000
1000
1000
0
0
0
0
0
0
1000
1000
1000
1000
1000
1000
1000
1000
1000
1000
1000
1000
1000
1000
1000
1000
1000
1000
1000
1000
1000
1000
1000
1000
1000
1000
1000
1000
1000
1000
1000
1000
1000
1000
1000
1000
1000
1000
1000
1000
1000
1000
1000
1000
1000
1000
1000
1000
1000
1000
1000
1000
1000
1000
1000
1000
1000
1000
1000
1000
1000
1000
1000
1000
1000
1000
1000
1000
1000
1000
1000
1000
1000
1000
1000
1000
1000
1000
1000
1000
1000
1000
1000
1000
1000
1000
1000
1000
1000
1000
1000
1000
1000
1000
1000
1000
1000
1000
1000
1000
1000
1000
1000
1000
1000
1000
1000
1000
1000
1000
1000
1000
1000
1000
1000
1000
1000
1000
1000
1000
1000
1000
1.1775616
0.52962197
0.14503291
0.16899364
1000
1000
0.39610464
1000
0.61169964
1000
0.16265287
0.34397981
1.1276843
0.38635821
0.2251234
)


228
(
0
0
0
0.24001492
0.12587563
1000
1000
1000
1000
0
1000
1000
0.41787141
0
0
0.00037021073
1000
1000
0.91202678
0.057436654
1000
1000
1000
1000
1000
0.15895512
1000
0
0
0.00070103215
0
0
1000
1000
1000
0
0
1000
1000
1.559469
1000
0
0
1000
1000
1000
0.32411251
0.89267173
1000
0
1000
1.512973e-05
0.4290072
1000
1000
1000
1000
0.92467929
1000
1000
0.32334181
1000
1000
1000
1.6481556
0
0.5447888
0.12030956
0.0093897633
0.0075179527
1000
1000
1000
1000
0.00016692057
1000
1000
0
0
1000
1000
1000
1000
1000
1000
0
0
0
0.00012699815
0
5.7821166e-05
1000
1000
1000
1000
1000
1000
1000
1000
1000
1000
1000
1000
1000
1000
1000
1000
1000
1000
1000
1000
1000
1000
1000
1000
1000
1000
1000
1000
1000
1000
1000
1000
1000
1000
1000
1000
1000
1000
1000
1000
1000
1000
1000
1000
1000
1000
1000
1000
1000
1000
1000
1000
1000
1000
1000
1000
1000
1000
1000
1000
1000
1000
1000
1000
1000
1000
1000
1000
1000
1000
1000
1000
1000
1000
1000
1000
1000
1000
1000
1000
1000
1000
1000
1000
1000
1000
1000
1000
1000
1000
1000
1000
1000
1000
1000
1000
1000
1000
1000
1000
1000
1000
1000
1000
1000
1000
1000
1000
1000
1000
1000
1000
1000
1000
1000
1000
1000
1000
1000
1000
1000
1000
0.78270899
0.44533968
1000
0.18167213
1000
1000
0.2548565
1000
1000
1000
0.12910902
0.22546619
1.3763286
0.34320458
0.25554999
)


228
(
0
0
0.33097548
1000
1000
1000
1000
1000
1000
0
1000
1000
1000
0
0
0.003375473
1000
1000
1000
1000
1000
1000
1000
1000
1000
1000
1000
0
0
0.10914209
0
0
1000
1000
1000
0
0
1000
1000
1000
1000
1000
0
1000
1000
1000
1000
1000
1000
0.04694208
1000
0
1000
1000
1000
1000
1000
1000
1000
1000
0.27058166
1000
1000
1000
1000
0.38145275
1000
1000
0.63570657
0.0033138142
1000
1000
1000
1000
0.048555992
1000
1000
0
0
1000
1000
1000
1000
1000
1000
1000
1000
1000
1000
1000
1000
1000
1000
1000
1000
1000
1000
1000
1000
1000
1000
1000
1000
1000
1000
1000
1000
1000
1000
1000
1000
1000
1000
1000
1000
1000
1000
1000
1000
1000
1000
1000
1000
1000
1000
1000
1000
1000
1000
1000
1000
1000
1000
1000
1000
1000
1000
1000
1000
1000
1000
1000
1000
1000
1000
1000
1000
1000
1000
1000
1000
1000
1000
1000
1000
1000
1000
1000
1000
1000
1000
1000
1000
1000
1000
1000
1000
1000
1000
1000
1000
1000
1000
1000
1000
1000
1000
1000
1000
1000
1000
1000
1000
1000
1000
1000
1000
1000
1000
1000
1000
1000
1000
1000
1000
1000
1000
1000
1000
1000
1000
1000
1000
1000
1000
1000
1000
1000
1000
1000
1000
1000
1000
1000
1000
1000
0.17076804
1000
1000
1000
1000
1000
1000
1000
0.24942868
1000
0.31017286
0.27287869
)

)


// ************************************************************************* //
