/*--------------------------------*- C++ -*----------------------------------*\
  =========                 |
  \\      /  F ield         | OpenFOAM: The Open Source CFD Toolbox
   \\    /   O peration     | Website:  https://openfoam.org
    \\  /    A nd           | Version:  8
     \\/     M anipulation  |
\*---------------------------------------------------------------------------*/
/*   Windows 32 and 64 bit porting by blueCAPE: http://www.bluecape.com.pt   *\
|  Based on Windows porting (2.0.x v4) by Symscape: http://www.symscape.com   |
\*---------------------------------------------------------------------------*/
FoamFile
{
    version     2.0;
    format      ascii;
    class       scalarListList;
    location    "constant/vegetation";
    object      solarLoadFineFaces;
}
// * * * * * * * * * * * * * * * * * * * * * * * * * * * * * * * * * * * * * //


5
(

1128
(
717.08284
717.08284
717.08284
717.08284
717.08284
717.08284
717.08284
717.08284
717.08284
717.08284
0
717.08284
717.08284
0
717.08284
717.08284
717.08284
717.08284
717.08284
717.08284
115.2392
717.08284
717.08284
0
115.2392
88.046957
180.23666
717.08284
0
0
0
717.08284
717.08284
717.08284
717.08284
74.287349
717.08284
717.08284
717.08284
717.08284
717.08284
717.08284
717.08284
107.00134
175.55638
717.08284
717.08284
74.287349
717.08284
717.08284
717.08284
717.08284
717.08284
717.08284
717.08284
133.74211
717.08284
717.08284
717.08284
717.08284
82.348857
717.08284
717.08284
717.08284
93.236416
175.55638
107.00134
717.08284
348.84327
717.08284
717.08284
161.22183
717.08284
717.08284
717.08284
717.08284
213.33994
213.33994
717.08284
0
0
0
717.08284
717.08284
717.08284
717.08284
717.08284
717.08284
717.08284
214.7959
110.74674
717.08284
175.55638
151.9437
115.2392
115.2392
151.9437
0
0
0
119.78466
161.22183
717.08284
123.28522
161.22183
119.78466
717.08284
161.22183
184.60016
717.08284
717.08284
717.08284
107.00134
213.33994
213.33994
152.5631
152.5631
152.5631
110.74674
274.18851
133.74211
152.5631
89.477704
175.55638
89.477704
89.477704
107.00134
717.08284
717.08284
717.08284
717.08284
717.08284
717.08284
717.08284
717.08284
717.08284
717.08284
717.08284
717.08284
717.08284
717.08284
717.08284
180.23666
444.3236
211.30255
717.08284
717.08284
717.08284
717.08284
717.08284
717.08284
717.08284
184.60016
717.08284
717.08284
315.13298
315.13298
74.287349
717.08284
717.08284
717.08284
133.74211
463.81414
133.74211
717.08284
717.08284
717.08284
585.70107
717.08284
717.08284
301.87827
717.08284
399.04962
110.74674
110.74674
110.74674
119.78466
211.30255
119.78466
399.04962
211.30255
211.30255
717.08284
211.30255
399.04962
91.748641
91.748641
123.28522
88.046957
91.748641
119.78466
110.74674
82.348857
82.348857
717.08284
717.08284
717.08284
717.08284
717.08284
717.08284
717.08284
717.08284
717.08284
717.08284
717.08284
717.08284
717.08284
0
0
0
717.08284
316.04109
316.04109
717.08284
717.08284
717.08284
717.08284
717.08284
717.08284
93.236416
89.477704
89.477704
0
717.08284
717.08284
717.08284
717.08284
0
88.046957
88.046957
88.046957
671.47501
671.47501
717.08284
0
0
0
0
0
0
717.08284
717.08284
717.08284
74.287349
91.748641
88.046957
717.08284
717.08284
717.08284
717.08284
717.08284
717.08284
717.08284
717.08284
717.08284
717.08284
717.08284
717.08284
717.08284
717.08284
717.08284
717.08284
397.70065
717.08284
717.08284
717.08284
717.08284
717.08284
717.08284
717.08284
717.08284
717.08284
585.70107
82.348857
82.348857
133.74211
717.08284
717.08284
717.08284
93.236416
89.477704
93.236416
717.08284
717.08284
717.08284
717.08284
717.08284
717.08284
88.046957
717.08284
717.08284
717.08284
717.08284
717.08284
717.08284
717.08284
717.08284
717.08284
717.08284
717.08284
717.08284
717.08284
717.08284
717.08284
214.7959
214.7959
717.08284
175.55638
717.08284
717.08284
717.08284
717.08284
409.39631
123.28522
74.287349
74.287349
717.08284
717.08284
717.08284
123.28522
184.60016
184.60016
184.60016
184.60016
123.28522
717.08284
717.08284
717.08284
717.08284
717.08284
717.08284
274.18851
274.18851
274.18851
717.08284
717.08284
717.08284
717.08284
717.08284
717.08284
717.08284
717.08284
717.08284
717.08284
717.08284
717.08284
717.08284
717.08284
717.08284
717.08284
717.08284
717.08284
717.08284
717.08284
717.08284
717.08284
717.08284
717.08284
717.08284
717.08284
717.08284
717.08284
0
0
0
0
0
0
222.06862
222.06862
222.06862
222.06862
222.06862
222.06862
0
0
0
0
0
0
0
0
0
0
0
0
0
0
0
0
0
0
0
0
0
0
0
0
0
0
0
0
0
0
0
0
0
0
0
0
0
0
0
0
0
0
0
0
0
0
0
0
0
0
0
0
0
0
0
0
0
0
0
0
0
0
0
0
0
0
0
0
0
0
0
0
0
0
0
0
0
0
0
0
0
0
0
0
0
0
0
0
0
0
0
0
0
0
0
0
0
0
0
0
0
0
0
0
0
0
0
0
0
0
0
0
0
0
0
0
0
0
0
0
0
0
0
0
692.02979
179.35161
0
0
0
103.74239
640.42463
190.76512
0
0
0
0
724.75806
676.51142
696.71045
697.69123
0
649.16139
272.47919
0
52.607072
92.803497
0
430.73169
421.40709
239.331
178.46929
179.78016
0
0
0
12.150116
17.580252
0
0
0
0
0
0
0
0
727.68296
726.60663
719.24663
672.41857
683.63377
724.96196
98.340483
306.59963
667.35325
719.69858
197.95354
57.25555
267.34941
127.1709
663.68355
3.3273242
59.241175
0
0
0
0
588.34584
126.96065
231.08329
159.21284
59.25526
118.20154
0
548.37664
0
0
0
0
0
0
0
0
0
0
0
0
0
0
0
0
0
0
0
0
11.950941
0
40.615033
0
0
83.887085
61.431838
57.152567
6.6736595
117.838
50.660724
54.96927
659.21023
582.54984
666.26473
186.96756
98.181574
126.31548
159.29388
0
637.49718
93.165762
83.179281
0
118.66545
99.590671
62.906406
128.04591
485.46896
109.50176
179.62311
286.95465
51.304616
64.600098
10.98136
16.236556
374.45275
419.05975
221.05181
108.00217
536.56724
666.36425
432.47681
3.4670309
0
0
0
0
560.6944
550.39958
478.76607
286.80115
51.723986
0
17.255474
40.616545
26.030028
0
88.125134
0
0
0
0
0
0
0
0
51.867614
53.585413
168.40021
0
112.29773
0
0
0
0
0
0
54.728111
404.11898
329.36868
126.32417
159.3817
333.32537
237.3649
697.30798
727.56893
673.3929
715.22149
697.80811
726.80503
745.16074
375.00512
7.1188152
117.84443
87.965859
157.69007
106.6448
197.74125
200.22972
524.40295
437.72316
476.0284
643.10351
430.40365
427.21393
242.5886
660.89605
211.90741
64.30561
1.3966493
93.258444
52.591485
421.01922
0
0
0
0
0
0
0
0
0
0
0
0
0
0
404.31859
466.03262
201.00411
108.96141
298.13144
252.21778
194.50671
57.957477
5.3652438
0
21.711285
48.405371
344.22786
554.51837
511.55453
192.98779
117.39417
365.17263
0
0
0
0
0
528.7699
588.29368
208.47295
148.67033
0
0
0
0
0
0
0
0
0
0
0
0
0
0
135.49596
207.17714
0
1.3210923
69.716151
0.40543643
0
528.93823
507.91591
0
0
0
0
0
0
0
0
0
0
0
0
0
0
0
0
0
162.92513
0
0
0
0
0
0
0
0
0
0
0
0
0
641.10683
750.33631
627.37816
560.97973
584.61027
752.59109
684.0282
548.04338
579.56092
71.579714
137.20395
159.43546
188.23436
100.87876
131.16398
0
162.3025
139.76478
157.25471
248.45888
447.36903
221.17045
222.73953
0
0
0
0
0
0
248.60621
447.3688
419.88199
450.81463
0
0
0
0
0
0
0
0
80.663347
0
0
16.594164
0
0
0
0
0
0
0
0
502.63752
461.07788
555.98159
500.29089
221.38155
141.45063
427.61934
304.09468
239.19326
129.81243
287.06402
0
21.746055
9.4844646
53.077446
0
0
0
0
51.141885
81.02909
115.52805
40.834563
125.45813
132.4695
0
0
0
238.23436
0
207.14424
0
110.13995
146.73302
139.9301
132.48571
0
115.46305
153.73275
302.61775
219.30579
278.79942
241.68526
0
0
0
0
0
0
278.80266
208.50663
219.31078
264.19227
0
0
0
0
0
0
0
0
0
620.9648
504.25235
399.45016
524.23965
0
0
0
0
516.92175
480.75067
423.70655
435.35219
378.19007
390.37599
349.38409
0
0
0
0
0
0
11.825382
71.596998
2.3940253
0
0
0
0
0
0
0
0
146.28871
0
130.87836
156.59808
68.80791
0
0
0
0
0
0
0
0
0
0
0
72.764162
157.4126
139.77305
95.006187
0
35.300695
0
0
89.896095
140.04314
157.57826
153.49148
0
0
0
382.03084
0
0
76.467037
63.640868
67.405952
25.238755
386.39583
296.3559
186.97242
266.88983
728.87803
751.49592
579.48829
586.14018
584.64824
455.06801
564.66992
366.07293
256.14179
312.49351
303.51154
496.27035
207.86686
74.939808
59.180177
32.826223
61.37541
137.17296
213.55052
136.29704
223.73754
144.17368
566.66843
496.13475
192.57068
201.77147
0
191.90339
0
75.726455
135.37746
89.943376
58.372452
55.550991
2.201025
0
0
95.131934
73.037562
89.67447
157.57178
0
0
1.8471342
0
446.99731
344.71946
326.55317
336.14145
304.62929
307.23009
303.91529
244.77566
450.71704
387.98273
390.78122
0
0
0
0
0
0
0
0
0
0
0
0
0
0
0
0
0
0
0
0
0
0
439.00503
233.47831
308.22482
185.28404
58.682376
171.44893
83.205603
23.456024
177.62413
79.371257
1.1270655
0
28.500797
1.5426446
40.88739
19.240417
108.52256
85.977274
0
13.259102
28.224771
0
57.029092
223.14391
307.63478
221.2187
304.03876
375.6611
388.10241
560.73318
507.77666
523.71237
326.49334
421.0189
302.48928
244.7628
241.50419
303.90771
390.48418
447.06098
483.4892
673.66729
127.49432
133.72286
40.666813
125.91498
87.244054
28.084902
42.228315
0
0
172.85693
208.99363
115.08209
233.57691
264.75184
216.15335
360.31662
139.82404
90.388285
65.129597
0
311.46045
246.61349
)


1128
(
585.76158
585.76158
585.76158
585.76158
585.76158
585.76158
585.76158
338.87994
585.76158
585.76158
0
585.76158
585.76158
0
585.76158
338.87994
585.76158
585.76158
585.76158
585.76158
0
0
585.76158
0
0
66.618869
196.55509
0
0
0
0
585.76158
585.76158
585.76158
585.76158
159.84248
585.76158
585.76158
585.76158
585.76158
585.76158
585.76158
585.76158
136.64943
585.76158
585.76158
585.76158
159.84248
585.76158
0
0
585.76158
585.76158
585.76158
585.76158
96.475168
234.47895
585.76158
585.76158
234.47895
77.19553
585.76158
585.76158
585.76158
0
585.76158
136.64943
585.76158
585.76158
0
585.76158
585.76158
585.76158
585.76158
585.76158
585.76158
235.15306
585.76158
585.76158
0
0
0
585.76158
585.76158
585.76158
585.76158
585.76158
585.76158
585.76158
106.11353
83.511601
0
0
0
0
0
0
0
0
0
127.79549
266.21541
585.76158
252.31111
266.21541
127.79549
585.76158
585.76158
585.76158
585.76158
585.76158
585.76158
136.64943
235.15306
235.15306
585.76158
585.76158
231.96982
83.511601
86.153049
96.475168
231.96982
0
0
0
0
136.64943
585.76158
585.76158
585.76158
585.76158
585.76158
585.76158
585.76158
585.76158
585.76158
585.76158
585.76158
585.76158
585.76158
585.76158
585.76158
196.55509
354.44927
243.2827
585.76158
585.76158
585.76158
585.76158
585.76158
585.76158
585.76158
585.76158
585.76158
585.76158
479.91613
585.76158
159.84248
585.76158
585.76158
585.76158
96.475168
338.87994
96.475168
585.76158
281.58556
585.76158
234.47895
86.153049
86.153049
585.76158
585.76158
585.76158
83.511601
83.511601
83.511601
127.79549
243.2827
127.79549
585.76158
243.2827
243.2827
585.76158
585.76158
585.76158
136.79563
136.79563
252.31111
66.618869
136.79563
127.79549
83.511601
77.19553
77.19553
585.76158
585.76158
585.76158
585.76158
585.76158
585.76158
585.76158
585.76158
585.76158
585.76158
585.76158
585.76158
585.76158
0
0
0
585.76158
238.75627
238.75627
585.76158
585.76158
585.76158
585.76158
585.76158
585.76158
0
0
0
0
0
0
0
0
0
66.618869
66.618869
66.618869
0
0
0
0
0
0
0
0
0
585.76158
585.76158
585.76158
159.84248
136.79563
66.618869
585.76158
585.76158
585.76158
585.76158
585.76158
585.76158
585.76158
585.76158
585.76158
585.76158
585.76158
585.76158
585.76158
585.76158
585.76158
585.76158
585.76158
585.76158
585.76158
585.76158
585.76158
585.76158
585.76158
585.76158
234.47895
234.47895
234.47895
77.19553
77.19553
96.475168
585.76158
585.76158
585.76158
0
0
0
585.76158
585.76158
585.76158
430.90881
585.76158
585.76158
66.618869
585.76158
585.76158
585.76158
585.76158
585.76158
585.76158
585.76158
585.76158
585.76158
585.76158
585.76158
585.76158
298.44187
298.44187
585.76158
106.11353
106.11353
106.11353
0
0
0
0
0
0
252.31111
159.84248
159.84248
585.76158
585.76158
585.76158
585.76158
585.76158
585.76158
585.76158
585.76158
585.76158
585.76158
585.76158
585.76158
585.76158
585.76158
585.76158
86.153049
86.153049
86.153049
585.76158
585.76158
585.76158
0
0
0
585.76158
585.76158
585.76158
96.475168
585.76158
585.76158
585.76158
585.76158
585.76158
585.76158
585.76158
585.76158
585.76158
585.76158
585.76158
585.76158
585.76158
585.76158
585.76158
585.76158
585.76158
585.76158
0
0
0
0
0
0
169.66998
169.66998
169.66998
169.66998
169.66998
169.66998
0
0
0
0
0
0
0
0
0
0
0
0
0
0
0
0
0
0
0
0
0
0
0
0
0
0
0
0
0
0
0
0
0
0
0
0
0
0
0
0
0
0
0
0
0
0
0
0
0
0
0
0
0
0
0
0
0
0
0
0
0
0
0
0
0
0
0
0
0
0
0
0
0
0
0
0
0
0
0
0
0
0
0
0
0
0
0
0
0
0
0
0
0
0
0
0
0
0
0
0
0
0
0
0
0
0
0
0
0
0
0
0
0
0
0
0
0
0
0
0
0
0
0
0
531.75358
289.6987
0
7.0834462
0
141.72452
498.75831
233.80885
0
0
0
0
591.24892
520.10456
572.98281
538.19991
0
475.74551
79.428105
0
185.37064
216.91261
0
366.34277
323.01319
336.50875
289.39897
288.03779
0
0
0
170.65578
137.65274
0
0
0
0
0
0
0
0
569.03912
604.19409
627.11506
584.61199
627.99013
609.58172
241.8966
403.89906
496.79243
623.31023
246.63762
208.52987
372.01874
55.852301
583.84568
26.175131
99.431902
0
0
0
0
420.72236
50.510225
48.762309
15.996108
0
35.979279
0
488.25571
0
0
0
0
0
0
0
0
0
0
0
0
0
0
0
0
0
0
0
142.96676
0
0
190.45844
55.325555
0
195.03579
0
0
0
0
0
115.02611
546.46426
563.92629
569.76594
310.00919
0
261.29035
0
0
452.01914
217.38411
194.76206
0
14.884905
7.4528543
65.529783
37.16886
330.51175
135.86817
287.98228
360.88195
184.03024
49.181805
136.57912
100.65507
263.41414
326.28757
199.74387
102.78566
561.26357
632.16427
493.20595
29.872496
0
0
0
0
360.25837
376.69197
280.81245
89.979872
78.9667
6.2678221
96.886598
190.45996
124.56211
0
36.729477
0
0
0
0
0
0
0
0
84.907348
88.069289
77.064415
0
4.9224057
0
0
0
0
0
0
88.714849
445.35312
393.81813
261.29745
290.93305
422.427
351.76058
539.73651
597.31992
587.88678
630.42032
574.74733
610.43388
646.21609
428.61743
160.20462
257.19605
211.03496
261.58437
198.34084
319.41554
118.30653
359.06101
302.49637
366.02822
505.49724
372.03872
405.17329
254.28457
555.24937
163.62597
64.346424
7.4602748
60.298867
25.782931
308.85689
0
0
0
0
0
0
0
0
0
0
0
0
0
0
246.09062
287.46993
11.967826
37.262271
118.00282
63.951712
18.672663
58.142979
100.33618
0
61.258384
59.009168
284.58387
562.91512
517.79793
104.7109
22.301248
202.95451
0
0
0
0
0
492.35964
553.75056
199.00783
147.71488
0
0
0
0
0
0
0
0
0
0
0
0
0
0
97.323227
155.47394
0
10.700282
128.43298
36.17775
0
492.15335
383.0384
0
0
0
0
0
0
0
0
0
0
0
7.9155678
0
0
0
0
0
193.75302
0
0
0
0
0
0
0
0
0
0
0
0
0
614.56547
616.37091
434.00644
425.05848
482.00222
638.13044
639.3245
488.38715
514.17319
138.21141
162.78018
78.341321
136.45341
27.122153
86.747714
0
193.50724
219.82394
219.29205
265.32295
425.33317
289.17969
270.35607
0
0
0
0
0
0
265.14229
425.32769
435.10739
400.725
0
0
0
0
0
0
0
0
189.93249
78.84728
6.1444541
96.436372
0
0
0
0
0
0
0
0
487.65659
350.45714
461.35345
463.06562
197.20592
136.82912
397.53743
333.36802
243.48218
148.28246
360.66357
0
40.79009
65.884208
86.667696
0
0
0
0
184.45111
190.45363
58.699721
24.812795
51.818403
71.483713
0
0
0
335.80521
0
188.48617
0
114.29116
136.23528
118.11954
71.500057
0
58.652303
131.42264
253.22406
142.60923
191.01614
202.91237
0
0
0
0
0
0
191.01861
119.69936
142.61132
165.15718
0
0
0
0
0
0
0
0
0
605.53386
540.1625
470.61338
430.71624
0
0
0
0
321.69985
293.55997
237.2314
259.22592
179.78345
187.63817
152.40467
0
0
0
0
0
0
142.73829
55.334095
94.263944
0
0
0
0
0
0
0
0
40.893206
0
33.775371
59.155747
62.650695
0
0
0
0
0
0
0
0
0
0
0
155.50303
218.96629
219.83372
139.17114
58.211964
81.890881
0
0
103.59731
117.63942
142.39296
130.69822
0
0
26.792622
244.46113
0
0
71.019291
31.464754
32.971921
47.904852
449.61194
383.08212
310.01288
372.24635
571.71512
623.44432
513.64357
554.17329
481.544
499.70959
557.33127
443.57538
325.52192
387.8133
339.52608
492.74486
315.2208
20.945483
163.39897
69.774742
203.98169
264.97269
166.72342
103.74639
204.78132
144.20725
478.30927
467.36125
146.25526
149.74128
0
105.86533
0
82.14895
96.62798
51.364718
12.82616
23.174183
79.754062
0
0
139.27379
155.97632
103.77304
142.38979
0
58.218996
94.01286
27.340606
370.79123
285.59079
231.35278
210.90476
309.80196
349.27708
261.93178
213.38109
401.16132
378.01002
348.45281
0
0
0
0
0
0
0
0
0
0
0
0
0
0
0
0
0
0
0
0
0
0
298.08881
74.137692
124.01279
32.037274
75.487084
5.5499845
61.789442
0
24.715883
0
110.14399
0
93.194279
43.364096
108.2375
94.829344
162.24909
158.88767
0
99.132418
128.95004
0
145.66571
270.23298
349.36087
289.08365
309.05415
400.94847
378.10825
424.63296
382.91844
429.73013
231.30299
308.85818
252.57463
213.369
202.21844
261.92565
347.81848
370.33039
518.799
627.07127
121.83804
153.00514
0
52.790984
0
0
0
0
0
56.646045
120.663
0
107.26991
166.21969
92.030245
243.24798
3.5596788
90.574886
98.075655
0
175.49941
83.128768
)


1128
(
536.2201
536.2201
536.2201
536.2201
536.2201
536.2201
536.2201
0
536.2201
536.2201
0
536.2201
536.2201
0
536.2201
0
536.2201
536.2201
536.2201
536.2201
0
0
536.2201
0
0
131.76422
398.61108
0
0
0
0
536.2201
90.343522
536.2201
536.2201
315.99438
536.2201
536.2201
536.2201
536.2201
536.2201
536.2201
536.2201
0
0
536.2201
536.2201
536.2201
536.2201
0
0
0
536.2201
536.2201
536.2201
0
0
0
89.163273
0
0
536.2201
536.2201
536.2201
0
0
0
536.2201
0
0
536.2201
536.2201
536.2201
536.2201
536.2201
536.2201
536.2201
536.2201
536.2201
0
0
0
536.2201
536.2201
536.2201
333.22899
333.22899
536.2201
280.55065
120.70573
0
0
0
0
0
0
0
0
0
0
192.2813
536.2201
536.2201
536.2201
536.2201
192.2813
536.2201
536.2201
536.2201
536.2201
536.2201
536.2201
0
536.2201
313.81621
0
536.2201
0
0
60.486743
0
0
0
0
0
0
0
536.2201
536.2201
536.2201
536.2201
536.2201
536.2201
536.2201
536.2201
536.2201
536.2201
536.2201
536.2201
536.2201
536.2201
536.2201
536.2201
394.8315
536.2201
536.2201
536.2201
536.2201
536.2201
536.2201
536.2201
536.2201
536.2201
536.2201
536.2201
536.2201
536.2201
536.2201
536.2201
536.2201
536.2201
0
0
0
89.163273
89.163273
89.163273
0
60.486743
60.486743
536.2201
536.2201
536.2201
0
0
0
192.2813
313.07181
192.2813
536.2201
536.2201
536.2201
536.2201
536.2201
536.2201
536.2201
536.2201
536.2201
131.76422
249.95157
192.2813
0
0
0
536.2201
536.2201
536.2201
536.2201
536.2201
536.2201
536.2201
536.2201
536.2201
536.2201
536.2201
536.2201
536.2201
0
0
0
536.2201
273.96184
273.96184
536.2201
536.2201
536.2201
536.2201
536.2201
536.2201
0
0
0
0
0
0
0
0
0
131.76422
131.76422
131.76422
0
0
0
0
0
0
0
0
0
418.04939
418.04939
536.2201
315.99438
249.95157
131.76422
536.2201
536.2201
536.2201
536.2201
536.2201
536.2201
536.2201
536.2201
536.2201
536.2201
536.2201
536.2201
536.2201
536.2201
536.2201
536.2201
536.2201
536.2201
536.2201
536.2201
536.2201
536.2201
536.2201
536.2201
0
0
0
0
0
0
536.2201
536.2201
536.2201
0
0
0
536.2201
536.2201
536.2201
0
0
0
131.76422
536.2201
536.2201
536.2201
536.2201
536.2201
536.2201
536.2201
536.2201
536.2201
536.2201
536.2201
364.35347
280.55065
280.55065
536.2201
120.70573
120.70573
120.70573
0
0
0
0
0
0
536.2201
536.2201
536.2201
536.2201
536.2201
536.2201
536.2201
536.2201
536.2201
536.2201
536.2201
536.2201
536.2201
536.2201
536.2201
536.2201
536.2201
536.2201
60.486743
60.486743
60.486743
536.2201
536.2201
536.2201
0
0
0
536.2201
536.2201
536.2201
0
0
0
536.2201
90.343522
0
333.22899
536.2201
0
90.343522
536.2201
536.2201
536.2201
536.2201
536.2201
536.2201
536.2201
536.2201
536.2201
0
0
0
0
0
0
129.78276
129.78276
129.78276
129.78276
129.78276
129.78276
0
0
0
0
0
0
0
0
0
0
0
0
0
0
0
0
0
0
0
0
0
0
0
0
0
0
0
0
0
0
0
0
0
0
0
0
0
0
0
0
0
0
0
0
0
0
0
0
0
0
0
0
0
0
0
0
0
0
0
0
0
0
0
0
0
0
0
0
0
0
0
0
0
0
0
0
0
0
0
0
0
0
0
0
0
0
0
0
0
0
0
0
0
0
0
0
0
0
0
0
0
0
0
0
0
0
0
0
0
0
0
0
0
0
0
0
0
0
0
0
0
0
0
0
450.45461
413.24306
0
106.99536
0
0
432.87213
0
0
0
0
0
533.34507
433.25586
520.36072
451.56936
0
377.06157
0
0
0
0
0
358.87031
280.61279
0
413.48522
0
0
0
0
327.9859
300.33864
0
0
56.760208
0
0
0
0
0
491.20071
564.15069
609.86464
564.45185
643.41887
576.43671
394.09609
533.72979
402.61848
608.36508
326.51813
366.11117
506.97157
10.206105
581.42802
46.272997
157.4571
0
0
0
0
323.04457
0
0
0
0
0
0
479.41822
0
0
0
0
0
0
0
0
0
0
0
0
0
0
0
0
0
0
0
0
0
0
0
0
0
306.83559
0
0
0
0
0
0
511.42887
530.54548
551.34696
0
0
0
0
0
333.88171
344.83835
306.94502
0
140.25905
152.2381
225.20057
103.02804
221.27177
158.36015
409.3017
458.58625
327.44463
189.99151
292.43441
232.0614
203.42177
289.32797
180.92468
93.963536
642.66622
669.34148
599.19949
0
0
0
0
0
222.05592
257.74436
132.71206
0
210.48638
136.73088
204.48797
340.73088
283.97761
109.05466
197.57602
0
0
0
0
0
0
0
0
247.03179
252.9576
65.319392
90.966384
170.92367
0
0
0
0
0
0
116.06858
523.47457
486.93902
406.45892
438.10799
545.52895
490.72487
461.67857
543.04583
570.21702
620.14532
522.94099
576.40127
628.94681
528.40554
316.84437
409.77131
349.1669
388.72784
309.90086
463.49029
69.747642
257.74126
224.07383
317.24945
444.00693
370.48926
438.77361
303.04479
527.40529
118.27725
58.576735
6.873324
23.920385
9.2180335
233.0248
0
0
0
0
0
0
0
0
0
0
0
0
0
0
140.11168
166.02732
0
0
0
0
0
0
0
0
0
0
251.40795
627.51033
573.22996
48.884064
0
73.574487
0
0
0
0
0
505.22619
576.70227
191.12659
145.09526
0
0
0
0
0
0
57.318578
0
0
0
0
0
0
0
0
138.19331
0
0
0
63.461338
0
504.6558
305.06654
0
0
0
0
0
0
0
0
0
0
0
108.33677
0
0
0
0
0
230.73148
0
11.733385
0
0
0
0
0
0
0
0
34.413755
0
0
570.65126
565.17626
309.51274
342.83573
435.20649
606.10644
577.80385
479.97856
504.05493
222.87918
214.54635
0.48562725
86.594173
66.812719
41.17509
0
230.79899
305.22616
287.86438
298.06843
442.50509
371.90492
331.80112
0
0
0
0
0
0
297.56911
442.49419
487.49655
389.78428
0
0
0
0
0
0
0
0
299.28603
209.90393
135.8865
203.49227
0
0
0
0
0
0
0
0
462.36812
299.58761
435.54231
422.58272
180.59881
0
366.23733
350.11422
246.29231
0
458.02261
0
0
0
0
0
0
0
0
316.57487
300.02143
2.247243
88.708562
15.437861
13.36492
0
0
0
453.14505
0
171.5229
0
114.76624
124.15752
99.392439
13.383138
0
1.8873049
113.73261
225.42869
78.610421
122.78803
178.72381
0
0
0
0
0
0
122.79011
42.786032
78.610242
84.429664
0
0
0
0
60.984326
33.441996
0
34.89282
0
659.40451
631.57369
585.05332
385.37663
0
0
0
0
186.58209
154.53286
92.521139
124.88628
20.811618
28.497906
2.7457943
0
0
0
0
0
124.8346
294.89936
209.48412
175.70078
0
0
0
0
0
0
0
0
116.48397
26.658503
85.599144
48.687025
226.54532
0
0
0
0
0
0
0
0
0
0
0
235.64961
287.05231
305.23856
181.94621
106.43057
144.1942
0
0
114.8447
98.33501
132.23801
112.50046
0
0
46.519254
139.89034
0
0
0
0
0
85.3134
549.7507
496.53499
450.17192
503.85491
495.56945
578.27497
503.051
579.53337
434.26231
596.80565
615.80626
562.48414
429.96915
502.05353
417.21847
549.83712
449.22263
148.55726
282.06522
194.98036
356.27997
410.72836
154.98833
98.188276
221.74933
171.74801
459.68047
500.59034
101.82087
100.31078
0
24.122736
0
83.180843
56.66512
9.4629289
112.46327
20.233615
172.52344
0
0
182.03966
236.3652
115.39604
132.23741
12.743331
106.43508
175.69568
47.493311
333.26303
252.98332
161.2433
112.96224
337.2934
415.39096
241.66766
196.89598
390.74712
400.14616
338.06023
0
0
0
0
0
0
0
0
0
0
0
0
0
0
0
0
0
0
0
0
0
0
213.89092
0
0
0
0
0
0
0
0
0
0
0
0
0
0
0
0
0
0
0
0
0
0
331.17698
415.18759
371.66147
336.31325
458.16964
400.2372
342.20823
304.94866
383.87199
161.19655
233.02762
224.24664
196.88318
177.4994
241.6621
337.05095
332.28931
602.39436
650.71113
0
0
0
12.10618
0
0
0
0
0
0
44.262545
0
1.8625576
86.038259
0
175.61722
0
0
0
0
64.716381
0
)


1128
(
411.8157
0
411.8157
411.8157
411.8157
411.8157
411.8157
0
0
0
0
411.8157
411.8157
0
0
0
411.8157
411.8157
411.8157
411.8157
0
0
0
0
0
411.8157
411.8157
0
0
0
0
0
0
0
411.8157
411.8157
0
411.8157
411.8157
411.8157
411.8157
411.8157
411.8157
0
0
411.8157
0
0
411.8157
0
0
0
411.8157
411.8157
411.8157
0
0
0
86.583297
0
0
411.8157
411.8157
411.8157
0
0
0
411.8157
0
0
411.8157
168.66326
0
411.8157
411.8157
411.8157
0
0
411.8157
0
0
0
411.8157
411.8157
411.8157
0
0
0
268.15595
0
0
0
0
0
0
0
0
0
0
0
163.35024
411.8157
411.8157
0
168.66326
163.35024
0
168.66326
0
411.8157
411.8157
411.8157
0
0
0
0
0
0
0
0
0
0
0
0
0
0
0
0
79.235175
79.235175
411.8157
411.8157
411.8157
411.8157
411.8157
411.8157
411.8157
411.8157
411.8157
411.8157
411.8157
411.8157
411.8157
411.8157
411.8157
411.8157
411.8157
411.8157
411.8157
411.8157
411.8157
411.8157
0
0
0
0
0
0
411.8157
411.8157
411.8157
0
0
0
86.583297
86.583297
86.583297
0
0
0
0
0
411.8157
0
0
0
411.8157
411.8157
411.8157
411.8157
411.8157
411.8157
411.8157
411.8157
411.8157
0
0
0
165.43017
0
163.35024
0
0
0
411.8157
411.8157
411.8157
411.8157
411.8157
411.8157
411.8157
411.8157
411.8157
411.8157
411.8157
411.8157
411.8157
0
0
0
411.8157
271.15877
271.15877
411.8157
411.8157
411.8157
411.8157
411.8157
411.8157
0
0
0
0
0
0
0
0
0
165.43017
165.43017
165.43017
0
0
0
0
0
0
0
0
0
79.235175
79.235175
0
0
0
411.8157
411.8157
411.8157
411.8157
411.8157
411.8157
411.8157
411.8157
411.8157
411.8157
411.8157
411.8157
411.8157
411.8157
411.8157
411.8157
411.8157
0
0
0
0
388.82885
411.8157
411.8157
411.8157
0
0
0
0
0
0
411.8157
411.8157
411.8157
0
0
0
0
0
411.8157
0
0
0
165.43017
411.8157
411.8157
411.8157
323.94087
323.94087
0
411.8157
411.8157
411.8157
0
0
0
268.15595
268.15595
411.8157
0
0
0
0
0
0
0
0
0
0
0
0
0
0
0
0
0
0
0
0
0
411.8157
411.8157
411.8157
411.8157
411.8157
411.8157
0
0
0
411.8157
411.8157
411.8157
0
0
0
0
0
0
0
0
0
411.8157
0
0
0
0
0
0
411.8157
411.8157
411.8157
411.8157
411.8157
411.8157
411.8157
411.8157
411.8157
0
0
0
0
0
0
61.054291
61.054291
61.054291
61.054291
61.054291
61.054291
0
0
0
0
0
0
0
0
0
0
0
0
0
0
0
0
0
0
0
0
0
0
0
0
0
0
0
0
0
0
0
0
0
0
0
0
0
0
0
0
0
0
0
0
0
0
0
0
0
0
0
0
0
0
0
0
0
0
0
0
0
0
0
0
0
0
0
0
0
0
0
0
0
0
0
0
0
0
0
0
0
0
0
0
0
0
0
0
0
0
0
0
0
0
0
0
0
0
0
0
0
0
0
0
0
0
0
0
0
0
0
0
0
0
0
0
0
0
0
0
0
0
0
59.626622
0
464.50114
0
177.932
0
0
0
0
0
60.472889
0
0
0
281.01845
387.44822
0
0
0
0
0
0
0
0
0
0
0
0
0
0
0
0
428.10874
411.74992
1.3491771
0
96.791153
0
0
0
0
0
0
0
0
455.44382
0
0
479.80154
578.15527
255.23084
505.90671
363.64465
463.18227
562.2252
19.320608
497.00219
57.287074
200.44298
0
0
0
0
0
0
0
0
0
0
0
391.3519
0
0
0
0
0
0
0
0
0
0
0
0
0
0
0
0
0
0
0
0
0
0
0
0
0
360.6791
0
0
0
0
0
0
0
0
0
0
0
0
0
0
168.27249
409.5476
361.16557
0
274.99523
274.62273
348.33822
234.53169
76.320675
168.8334
458.75716
477.12059
421.36149
303.27383
401.98324
330.72779
124.85785
220.01481
146.72661
72.51536
623.36507
603.97102
609.97402
0
0
0
0
0
0
99.839276
0
0
298.65241
234.69972
268.81033
430.75069
392.45276
242.86339
319.93557
0
0
0
0
0
0
90.882761
0
368.35382
373.3605
209.82042
233.6004
304.14214
0
0
0
0
0
0
132.94432
513.7821
497.07977
482.13357
512.70796
580.36293
549.97739
320.85352
406.56364
462.82355
514.40628
390.45573
460.45573
518.79655
550.49693
422.90632
495.79395
435.10751
458.7296
378.71494
533.74354
23.382487
128.12645
123.61752
231.63824
324.12035
322.92193
414.06976
314.65764
427.21436
57.885306
41.379017
4.0274214
30.838942
62.514364
116.2681
0
0
0
0
0
0
0
0
0
0
0
0
0
0
0
0
0
0
0
0
0
0
0
0
0
0
171.57247
591.98677
534.81596
0
0
0
0
0
0
0
0
434.32055
506.44739
168.24909
128.90901
0
0
0
0
0
0
97.507521
0
0
0
0
0
0
0
0
0
0
0
0
81.774543
0
433.47755
176.52155
0
0
0
0
0
0
0
0
0
0
0
179.5897
0
0
0
129.85603
0
220.99961
0
16.715278
0
0
0
0
0
0
0
0
0
0
0
0
0
0
205.50092
317.74566
0
0
392.24192
411.62482
280.67038
242.84578
114.73185
22.336739
166.61933
21.840877
0
221.36268
332.58913
300.95063
274.58464
383.9935
387.19829
331.60883
0
0
0
0
0
0
273.84683
383.97887
457.0576
311.67836
0
0
0
0
0
0
0
0
351.70085
0
0
267.40429
0
0
0
0
0
0
0
0
0
0
0
0
0
0
0
0
0
0
476.28123
0
0
0
0
0
0
0
0
390.1502
352.55042
48.255811
140.09228
73.89888
42.914729
0
0
0
492.61353
0
139.49261
0
102.6721
98.449804
55.129173
39.300949
0
44.221787
68.355699
154.34072
3.7100846
28.626668
117.7361
0
0
0
0
0
0
28.628089
37.009206
4.0517247
12.168882
0
0
0
97.804241
199.59969
158.07334
0
135.94568
0
614.27721
625.73279
607.58084
275.78005
0
0
0
0
0
0
0
0
0
0
0
0
0
0
0
0
247.45993
393.30152
322.28217
217.84318
0
0
0
0
0
0
0
0
259.32698
180.16302
207.60474
174.83595
352.21811
109.60434
127.62391
22.573081
0
0
0
0
0
0
0
0
267.75454
299.77312
332.60237
184.95339
125.88597
182.87146
0
0
97.050302
53.677253
91.342223
66.820438
0
0
47.059286
10.239578
0
0
0
0
0
119.80382
559.16946
526.3627
514.80048
552.62864
349.7096
449.31877
410.30547
511.23666
316.48041
603.79698
584.10229
594.33928
472.97866
541.5805
437.73138
528.77102
514.85243
256.6505
361.65085
293.88796
452.48152
492.5002
131.59716
89.528589
215.75671
183.64145
380.53479
465.21824
42.778567
36.149891
0
88.72323
0
72.550771
3.4562032
55.641666
200.86081
78.827896
245.52523
0
0
185.0242
268.60828
97.883163
91.344183
18.00993
125.88732
218.08478
48.301692
237.95387
173.45933
59.835885
4.9260547
303.18707
408.16977
175.38497
140.59862
313.0073
352.15517
267.58182
0
0
0
0
0
0
0
0
0
0
0
0
0
0
0
0
0
0
0
0
0
0
0
0
0
0
0
0
0
0
0
0
0
0
0
0
0
0
0
0
0
0
0
0
0
330.57902
407.71064
386.84146
302.11966
436.37943
352.2268
204.77635
176.42136
273.99891
59.798597
116.27192
152.8247
140.587
116.1859
175.38074
266.35743
236.63629
588.75344
573.27858
0
0
0
66.417931
0
0
0
0
0
0
32.673092
0
82.876495
9.8156938
0
0
0
0
0
0
42.431911
0
)


1128
(
284.42858
204.28308
0
0
284.42858
204.28308
0
0
0
0
0
284.42858
0
0
0
0
0
284.42858
284.42858
284.42858
0
0
0
0
0
0
0
0
0
0
0
0
0
0
0
0
0
284.42858
284.42858
0
255.01952
284.42858
284.42858
0
0
0
0
0
0
0
0
0
284.42858
284.42858
284.42858
0
0
0
0
0
0
0
284.42858
284.42858
0
0
0
0
0
0
0
0
0
284.42858
284.42858
284.42858
0
0
0
0
0
0
283.47012
284.42858
284.42858
0
0
0
0
0
0
0
0
0
0
0
0
0
0
0
0
0
0
0
0
0
0
0
0
284.42858
284.42858
284.42858
0
0
0
0
0
0
0
0
0
0
0
0
0
0
0
0
0
0
284.42858
284.42858
0
284.42858
284.42858
284.42858
284.42858
284.42858
284.42858
284.42858
284.42858
284.42858
0
0
0
0
150.62234
284.42858
284.42858
284.42858
284.42858
284.42858
0
0
0
0
0
0
284.42858
284.42858
284.42858
0
0
0
0
0
0
0
0
0
0
0
0
0
0
0
0
0
0
0
0
0
0
0
0
0
0
0
0
0
0
0
0
0
284.42858
284.42858
284.42858
284.42858
284.42858
284.42858
0
284.42858
284.42858
284.42858
0
284.42858
284.42858
0
0
0
0
0
0
284.42858
284.42858
284.42858
284.42858
284.42858
284.42858
0
0
0
0
0
0
0
0
0
0
0
0
0
0
0
0
0
0
0
0
0
0
0
0
0
0
0
284.42858
284.42858
284.42858
284.42858
284.42858
284.42858
0
150.62234
0
284.42858
284.42858
255.01952
284.42858
284.42858
284.42858
0
0
0
0
0
0
284.42858
284.42858
284.42858
0
0
0
0
0
0
284.42858
284.42858
0
0
0
0
0
0
0
0
0
0
0
0
0
0
0
0
0
284.42858
284.42858
270.9478
0
0
0
0
0
0
0
0
0
0
0
0
0
0
0
0
0
0
0
0
0
0
0
0
0
0
0