/*--------------------------------*- C++ -*----------------------------------*\
  =========                 |
  \\      /  F ield         | OpenFOAM: The Open Source CFD Toolbox
   \\    /   O peration     | Website:  https://openfoam.org
    \\  /    A nd           | Version:  8
     \\/     M anipulation  |
\*---------------------------------------------------------------------------*/
/*   Windows 32 and 64 bit porting by blueCAPE: http://www.bluecape.com.pt   *\
|  Based on Windows porting (2.0.x v4) by Symscape: http://www.symscape.com   |
\*---------------------------------------------------------------------------*/
FoamFile
{
    version     2.0;
    format      ascii;
    class       scalarListList;
    location    "constant/vegetation";
    object      sunViewCoeff;
}
// * * * * * * * * * * * * * * * * * * * * * * * * * * * * * * * * * * * * * //


5
(

228
(
0
717.08284
717.08284
717.08284
717.08284
666.39629
717.08284
717.08284
0
717.08284
280.03853
717.08284
518.14268
717.08284
717.08284
717.08284
115.2392
709.45891
88.046957
502.76216
0
284.4026
240.03855
717.08284
717.08284
650.64154
74.287349
717.08284
717.08284
717.08284
717.08284
717.08284
107.00134
175.55638
637.63388
717.08284
717.08284
245.54431
691.10793
717.08284
82.348857
717.08284
717.08284
93.236416
717.08284
624.02289
558.82595
161.22183
717.08284
717.08284
213.33994
717.08284
717.08284
340.88845
110.74674
677.33404
430.35601
119.78466
123.28522
184.60016
717.08284
152.5631
570.94008
89.477704
717.08284
717.08284
211.30255
717.08284
717.08284
717.08284
717.08284
517.19514
613.82487
91.748641
717.08284
0
717.08284
0
0
0
0
0
0
0
0
222.06862
222.06862
222.06862
222.06862
222.06862
222.06862
0
0
0
0
0
0
0
0
0
0
0
0
0
0
0
0
0
0
0
0
0
0
0
0
0
0
0
0
0
0
0
0
0
0
0
0
0
0
0
0
0
0
0
0
0
0
0
0
0
0
0
0
0
0
0
0
0
0
0
0
0
0
0
0
0
0
0
0
0
0
0
0
0
0
0
0
0
0
0
0
0
0
0
0
0
0
0
0
0
0
0
0
0
0
0
0
0
0
0
0
0
0
0
0
0
0
0
0
0
0
0
0
0
0
0
0
0
0
0
0
0
0
0
0
765.3255
566.09432
0
121.66513
23.912727
0
228.70517
11.452076
31.048787
104.29463
37.525787
299.00221
216.65665
)


228
(
0
585.76158
585.76158
585.76158
585.76158
438.46256
585.76158
297.53214
0
585.76158
0
585.76158
413.62666
585.76158
585.76158
585.76158
0
190.31731
66.618869
430.38188
0
0
0
585.76158
585.76158
529.41632
159.84248
585.76158
585.76158
585.76158
585.76158
585.76158
136.64943
235.63709
585.76158
585.76158
585.76158
96.475168
376.16566
510.48735
77.19553
585.76158
585.76158
0
585.76158
547.41871
585.76158
426.18656
585.76158
585.76158
322.33641
585.76158
514.78411
106.11353
83.511601
0
0
127.79549
385.70455
585.76158
585.76158
407.84706
86.153049
0
585.76158
585.76158
311.28303
585.76158
585.76158
585.76158
585.76158
559.34394
585.76158
136.79563
585.76158
0
0
0
0
0
0
0
0
0
0
169.66998
169.66998
169.66998
169.66998
169.66998
169.66998
0
0
0
0
0
0
0
0
0
0
0
0
0
0
0
0
0
0
0
0
0
0
0
0
0
0
0
0
0
0
0
0
0
0
0
0
0
0
0
0
0
0
0
0
0
0
0
0
0
0
0
0
0
0
0
0
0
0
0
0
0
0
0
0
0
0
0
0
0
0
0
0
0
0
0
0
0
0
0
0
0
0
0
0
0
0
0
0
0
0
0
0
0
0
0
0
0
0
0
0
0
0
0
0
0
0
0
0
0
0
0
0
0
0
0
0
0
0
0
0
0
0
0
31.159457
635.93579
563.06833
0
62.996832
33.600502
0
36.352069
49.652488
183.36787
127.39595
9.8795371
280.0098
239.07553
)


228
(
0
536.2201
536.2201
536.2201
536.2201
0
536.2201
129.35051
0
536.2201
0
395.75825
406.12467
536.2201
536.2201
536.2201
0
174.221
131.76422
508.86094
0
0
0
536.2201
201.77977
501.77932
499.68938
536.2201
536.2201
536.2201
536.2201
536.2201
0
0
536.2201
536.2201
536.2201
0
0
89.163273
0
536.2201
536.2201
0
536.2201
0
536.2201
536.2201
536.2201
489.43003
480.41881
536.2201
440.92877
120.70573
0
0
0
192.2813
536.2201
536.2201
536.2201
133.5961
60.486743
0
488.87379
536.2201
491.65739
536.2201
536.2201
536.2201
493.29841
536.2201
536.2201
392.85802
536.2201
0
0
0
0
0
0
0
0
0
0
129.78276
129.78276
129.78276
129.78276
129.78276
129.78276
0
0
0
0
0
0
0
0
0
0
0
0
0
0
0
0
0
0
0
0
0
0
0
0
0
0
0
0
0
0
0
0
0
0
0
0
0
0
0
0
0
0
0
0
0
0
0
0
0
0
0
0
0
0
0
0
0
0
0
0
0
0
0
0
0
0
0
0
0
0
0
0
0
0
0
0
0
0
0
0
0
0
0
0
0
0
0
0
0
0
0
0
0
0
0
0
0
0
0
0
0
0
0
0
0
0
0
0
0
0
0
0
0
0
0
0
0
0
0
0
0
0
0
61.525049
553.98916
609.08687
0
7.9781001
44.311069
0
38.12315
27.004148
344.70069
173.45355
0
277.17557
269.01382
)


228
(
0
411.8157
360.69621
400.83245
411.8157
0
0
0
0
411.8157
0
0
342.04164
411.8157
411.8157
411.8157
0
0
235.80132
407.24381
0
0
0
0
0
411.8157
34.288899
411.8157
411.8157
411.8157
411.8157
411.8157
0
0
206.83316
411.8157
411.8157
0
0
86.583297
0
411.8157
411.8157
0
206.01109
0
411.8157
229.41545
0
357.89107
0
411.8157
358.27184
0
0
0
0
262.59583
0
0
411.8157
0
0
0
145.62971
411.8157
411.8157
411.8157
411.8157
411.8157
0
0
0
0
411.8157
0
0
0
0
0
0
0
0
0
0
61.054291
61.054291
61.054291
61.054291
61.054291
61.054291
0
0
0
0
0
0
0
0
0
0
0
0
0
0
0
0
0
0
0
0
0
0
0
0
0
0
0
0
0
0
0
0
0
0
0
0
0
0
0
0
0
0
0
0
0
0
0
0
0
0
0
0
0
0
0
0
0
0
0
0
0
0
0
0
0
0
0
0
0
0
0
0
0
0
0
0
0
0
0
0
0
0
0
0
0
0
0
0
0
0
0
0
0
0
0
0
0
0
0
0
0
0
0
0
0
0
0
0
0
0
0
0
0
0
0
0
0
0
0
0
0
0
47.679044
53.714655
113.41626
560.16062
0
0
4.3799448
0
26.580669
0
446.14044
204.63886
0
216.73916
244.00552
)


228
(
0
284.42858
264.49998
0
0
0
0
0
0
284.42858
0
0
0
284.42858
284.42858
284.33613
0
0
0
0
0
0
0
0
0
0
0
284.42858
284.42858
269.78405
284.42858
284.42858
0
0
0
284.42858
284.42858
0
0
0
0
162.52886
284.42858
0
0
0
0
0
0
282.72066
0
284.42858
143.08926
0
0
0
0
0
0
0
284.42858
0
0
0
0
284.42858
0
0
240.08954
284.42858
0
0
0
0
281.08162
0
0
0
0
0
0
0
0
0
0
0
0
0
0
0
0
0
0
0
0
0
0
0
0
0
0
0
0
0
0
0
0
0
0
0
0
0
0
0
0
0
0
0
0
0
0
0
0
0
0
0
0
0
0
0
0
0
0
0
0
0
0
0
0
0
0
0
0
0
0
0
0
0
0
0
0
0
0
0
0
0
0
0
0
0
0
0
0
0
0
0
0
0
0
0
0
0
0
0
0
0
0
0
0
0
0
0
0
0
0
0
0
0
0
0
0
0
0
0
0
0
0
0
0
0
0
0
0
0
0
0
0
0
0
0
0
0
0
0
15.080717
0
457.45453
0
0
1.656467
0
0
0
108.47512
213.96844
0
135.05784
182.90053
)

)


// ************************************************************************* //
