/*--------------------------------*- C++ -*----------------------------------*\
  =========                 |
  \\      /  F ield         | OpenFOAM: The Open Source CFD Toolbox
   \\    /   O peration     | Website:  https://openfoam.org
    \\  /    A nd           | Version:  8
     \\/     M anipulation  |
\*---------------------------------------------------------------------------*/
/*   Windows 32 and 64 bit porting by blueCAPE: http://www.bluecape.com.pt   *\
|  Based on Windows porting (2.0.x v4) by Symscape: http://www.symscape.com   |
\*---------------------------------------------------------------------------*/
FoamFile
{
    version     2.0;
    format      ascii;
    class       scalarListList;
    location    "constant/vegetation";
    object      F;
}
// * * * * * * * * * * * * * * * * * * * * * * * * * * * * * * * * * * * * * //


780
(

1902
(
8.7185673e-06
4.6666699e-06
6.6527277e-06
5.8360595e-06
1.4652838e-05
1.6426104e-05
1.6157781e-05
1.8147321e-05
1.7852954e-05
8.8577677e-07
6.4017799e-07
9.4691172e-07
2.6798398e-06
1.2871629e-06
1.6274191e-06
2.1946361e-06
1.0847042e-05
8.4288983e-06
1.06308e-05
1.4410832e-05
1.2813258e-05
1.2592027e-05
1.980946e-05
2.0114972e-05
1.9490943e-05
2.1229741e-05
2.0892685e-05
2.1550739e-05
9.836202e-06
6.6504556e-06
6.6039816e-06
6.8588326e-06
6.8188356e-06
9.9037786e-06
1.0106387e-05
6.6952655e-06
6.7382187e-06
6.9034863e-06
6.6452808e-06
6.7790475e-06
6.6013938e-06
9.7614815e-06
6.2856629e-06
6.2421115e-06
6.4319973e-06
2.1546658e-05
6.3865107e-06
6.4758989e-06
2.1861884e-05
6.5184784e-06
6.7027999e-06
6.5598546e-06
1.9958599e-05
2.1211473e-05
6.081704e-06
6.038618e-06
2.0257534e-05
9.9794451e-06
2.045214e-05
1.0047155e-05
6.1232033e-06
6.1635224e-06
6.2025276e-06
6.5556018e-06
9.6906653e-06
6.3395542e-06
1.9648806e-05
5.993998e-06
1.1066955e-05
1.4884836e-05
8.5497134e-06
9.611223e-07
2.8944443e-06
4.8804023e-06
6.8694865e-06
6.8284346e-06
1.3023171e-05
1.3107674e-05
8.982573e-06
8.9301868e-06
1.109639e-05
1.364947e-07
1.2797799e-07
2.1695896e-06
3.5267265e-06
9.9579616e-07
1.3497755e-06
1.6804832e-07
1.0405457e-06
6.1305595e-06
1.330768e-06
1.7064315e-06
1.3529495e-07
4.195633e-07
1.8109913e-06
2.0768724e-06
7.0818132e-07
9.8419944e-07
6.8333552e-07
1.5551903e-06
1.2633761e-06
1.8777355e-07
3.9814945e-07
9.9431785e-07
6.7440612e-07
8.5424667e-07
7.1893636e-06
9.0969876e-07
2.750287e-06
4.653659e-07
7.5178845e-07
1.9074782e-06
1.6204413e-06
4.1987842e-07
1.817673e-06
4.7895412e-06
2.3067685e-06
7.0364562e-07
1.5412576e-06
5.6765117e-07
1.6684149e-05
1.8430014e-05
1.4695359e-08
9.2089438e-08
1.178919e-07
4.1015088e-08
6.6452166e-08
1.6940653e-07
1.437131e-07
8.1764102e-08
1.1288044e-08
1.051216e-07
8.3932424e-08
5.8223454e-08
3.4583108e-08
1.1493219e-08
1.0775443e-07
1.2830052e-07
1.5131032e-07
6.5264914e-08
4.8566126e-08
8.4533539e-08
1.0347321e-07
5.9956831e-08
3.572248e-08
1.3144677e-07
1.5500641e-07
5.1851123e-08
9.3787622e-09
4.9170605e-08
3.271668e-08
1.3354435e-08
4.0210624e-08
9.354242e-08
1.3463576e-07
8.9220209e-08
5.4869052e-08
7.2759816e-08
7.6984056e-08
6.9364754e-08
9.8968039e-08
1.1416528e-07
1.2079302e-07
1.4244414e-07
1.0895352e-07
2.8839447e-08
1.0783431e-08
1.0252568e-08
3.0959439e-08
7.7094387e-06
2.4166294e-06
5.5402813e-06
2.2098983e-06
4.3308697e-06
4.5965222e-06
4.1899786e-06
2.7915723e-06
4.4912834e-06
2.3890363e-06
1.3789853e-06
2.7990407e-06
4.4232956e-06
1.2611404e-06
5.7811286e-06
1.6930418e-06
7.329704e-07
3.4384842e-06
1.1254544e-07
5.6532527e-08
2.6039463e-07
2.4669756e-07
4.6060188e-08
5.7133222e-08
7.5340538e-08
4.6188934e-08
6.7323097e-08
5.7534174e-08
7.126803e-08
7.9225605e-08
8.4055814e-08
8.7099057e-08
6.0142694e-08
7.3817924e-08
7.7459522e-08
5.9163784e-08
6.1061462e-08
4.2010614e-08
9.0558214e-09
1.2203113e-07
9.2595019e-08
1.5022299e-07
5.8112298e-08
6.7938458e-08
1.1293136e-07
4.1673111e-08
1.2291633e-07
3.8038906e-08
1.8772939e-07
2.0456356e-07
1.5871833e-07
3.8021144e-08
4.6368862e-08
5.3253735e-08
4.5719132e-08
1.6841576e-07
9.1086967e-08
6.6802053e-08
5.6750236e-08
2.0210562e-07
8.244403e-08
9.4300998e-08
1.0740846e-07
7.297879e-08
4.2420875e-08
1.2360889e-07
4.0771624e-08
9.5047646e-09
3.4980386e-08
3.2391362e-08
7.5516015e-08
7.2348837e-08
1.0387646e-07
1.2788815e-07
1.1006879e-07
4.7428055e-08
3.3953858e-08
8.9109511e-08
6.1612355e-08
4.4044731e-08
5.6497052e-08
4.2573791e-08
2.9001248e-08
2.7705117e-08
8.5360488e-08
5.8830147e-08
4.1365757e-09
2.8783101e-08
3.6974678e-08
3.9887609e-09
2.7708696e-08
3.5583822e-08
2.51571e-08
1.2364693e-08
3.8443838e-09
2.6660553e-08
2.0577543e-08
3.5673891e-09
3.2339052e-08
5.3285918e-08
3.4248749e-08
4.5144337e-08
1.1931838e-08
1.9822188e-08
5.12732e-08
4.344414e-08
6.2179474e-08
9.4184035e-08
4.8648788e-08
3.4411236e-08
3.1659935e-08
6.7704839e-09
2.0855098e-08
1.5687712e-07
8.9690717e-08
1.7947927e-08
1.1456721e-08
1.9059872e-08
1.0731999e-08
3.9493796e-08
4.9354415e-08
4.1815741e-08
4.6621356e-08
7.6276472e-08
0.0013486946
0.0090908529
0.0072294832
0.014754141
0.016659422
0.0024813184
0.0074695277
0.0018224899
0.002572395
0.0015534352
0.00097342445
0.00087993458
0.0013686553
0.001542016
0.0021891048
0.00062090358
0.00089384533
0.0012952367
0.00075455351
0.0020212585
0.0044889864
0.0039998244
0.002878523
0.0038328252
0.0067417918
0.0059554336
0.0034888091
0.0056994356
0.0085076927
0.018077181
0.0042432605
0.010459013
0.017157422
0.0045720883
0.0067260796
0.0071777047
0.010576388
0.017402796
0.0043045575
3.0631596e-05
1.5615386e-05
2.7862227e-05
2.3898104e-05
5.9990069e-06
1.5222894e-05
8.3971618e-06
4.3900629e-05
5.367436e-05
1.7597609e-05
3.0007358e-05
6.8771169e-05
5.2812637e-05
6.1666968e-05
2.6133285e-05
2.0895806e-05
3.5207293e-05
0.00028543814
0.0012201249
8.9709897e-05
0.00050913899
0.0003151992
0.00042343601
6.9663923e-05
0.00040346806
0.0012047384
0.00028489812
0.00060867185
0.00057916053
0.00058129763
0.00046409773
0.00027719238
0.00036606147
0.00025171678
0.00050423455
0.00046390419
0.00063880438
0.00025848313
0.00010325004
0.00056989034
0.00040141235
0.0001165295
0.00044653988
0.00034848179
0.00031739065
0.00043326329
0.00038466672
0.00032256217
0.00048647402
0.00039841842
0.00028565456
0.00025750726
0.00028923448
0.00070956744
0.0006494661
0.00062205857
0.00069535135
0.00064043355
0.00061466245
0.00049559546
0.00061393439
0.00054549188
0.00065106604
0.00047804033
0.00050543952
0.00021077109
0.00019099477
8.5500414e-05
0.00032555193
0.00027142859
0.00020985922
0.00011383439
0.00020911871
0.0002328675
4.4898374e-05
6.7489767e-05
0.0001891679
0.0001027478
0.00018896366
0.00017332152
0.00034178606
0.00012635582
7.1227153e-05
9.1195987e-05
6.4869934e-05
0.00041205455
0.00051168928
7.277347e-05
3.1593019e-05
9.3642073e-05
4.5315311e-05
3.3894166e-05
2.9899141e-05
4.2039799e-05
2.5617097e-05
0.00012303933
5.5508115e-05
0.00010920317
6.2605563e-05
5.3089019e-05
0.00010371187
0.00013078045
6.1730116e-05
0.00010112704
4.8781298e-05
0.0001434054
6.7191361e-05
0.00011842774
9.5825261e-05
3.377608e-05
4.2752477e-05
4.548318e-05
0.00022922158
7.579672e-05
6.9173231e-05
6.8922303e-05
6.7060648e-05
8.8957135e-05
4.900191e-05
7.1893242e-05
7.6798981e-05
7.0116599e-05
4.5864784e-05
9.0151697e-05
8.6538697e-05
5.8412538e-05
5.7909592e-05
6.631908e-05
6.0282214e-05
5.5739101e-05
5.0672429e-05
9.689065e-05
5.3060524e-05
0.00011956987
0.00012825848
9.8034486e-05
0.00010972728
0.00012734136
6.9461208e-05
0.00015752587
0.00014089538
0.00014015487
7.6383822e-05
0.00020181574
8.9093725e-05
0.00031523822
0.00030490281
0.00033464257
0.00039068871
0.00022846721
0.00050974267
0.00049799768
0.00046077281
0.00043059856
9.6154751e-05
0.00010364482
8.0206386e-05
8.7786969e-05
9.4078205e-05
0.00020739713
0.0002966285
0.00018836136
0.0001712283
0.00015581656
0.00028306919
0.0003637561
0.00026601622
0.00030418462
0.00023853291
7.260947e-05
9.210451e-05
8.5183854e-05
0.00047735879
0.00052021785
0.00044268541
3.2396373e-05
3.6367514e-05
4.6369316e-05
4.1782771e-05
3.2137028e-05
3.6198877e-05
3.4111336e-05
2.8323185e-05
3.8874459e-05
3.8955512e-05
2.8632848e-05
2.6926116e-05
0.00012028371
6.8737656e-05
6.0115386e-05
5.7244299e-05
6.4766888e-05
5.6908728e-05
5.0106291e-05
5.2624182e-05
7.7812452e-05
7.3349204e-05
7.0927071e-05
0.00010858664
0.0001906979
0.00010121849
0.00014197932
0.00012956042
0.00036210326
0.00041292154
5.7090502e-05
6.1995194e-05
7.3480047e-05
3.079946e-05
3.7520105e-05
5.3377802e-05
5.101091e-05
4.1712949e-05
4.8690662e-05
0.00077563101
0.00054581836
0.00041791615
0.00026702138
0.00097735741
0.00055165439
0.0005075706
0.00084173753
0.00042662706
0.00046692798
0.0010927762
0.00063387704
0.00071870746
0.00071692202
0.00051380032
0.00029506388
0.00045422801
0.00033483907
0.00040115514
0.00035257938
0.00039126168
0.00035981455
0.00070264726
0.0011080034
0.0005938764
0.00025719519
0.00025955866
0.00073481216
0.00067123742
0.00072631763
0.00067129034
0.00054740781
0.0005708016
0.00060021307
0.00052450468
0.00060553557
0.00035599445
0.00071584945
0.00023321206
0.00023177239
0.00024218589
0.00017083343
9.2904476e-05
0.00017103474
0.00025365309
0.00012881166
0.00014158843
0.00015601651
0.00035331467
7.3791801e-05
7.1454318e-05
0.0004311468
0.00022716759
0.00020747728
0.00024774379
8.1312389e-05
4.548612e-05
7.3272802e-05
7.0706571e-05
4.1298489e-05
8.2733916e-05
6.1075967e-05
6.3709656e-05
5.3082059e-05
0.00010584972
5.7840969e-05
0.00011699481
0.00010695703
0.00011595717
6.330066e-05
0.00015508541
0.00015457988
8.4159913e-05
0.00069140972
0.00067275004
0.00063645943
0.00054713657
0.00060677082
0.00011480835
9.8035924e-05
7.7403248e-05
8.2125172e-05
3.7339231e-05
4.2718143e-05
3.4070873e-05
3.201195e-05
3.6287584e-05
3.0230186e-05
6.5845664e-05
6.2992123e-05
5.4394982e-05
5.9271014e-05
5.4393066e-05
0.00017125897
4.9357256e-05
5.3323065e-05
3.9095009e-05
4.5889041e-05
5.3073212e-05
0.00046487768
0.00081120061
0.00091788952
0.00062290765
0.00070475405
0.00070007731
0.00076792126
0.0006266756
0.00022761922
0.00090396072
0.00036418565
0.00029182581
0.00056888817
0.00045554808
0.00060178841
0.00046508227
0.00018944182
0.00023131142
0.00028318368
0.00034710069
0.00051866884
0.00042509855
0.00016063979
0.00044656288
0.0010622976
0.00082208243
0.00081240908
0.0010096245
0.0010407132
0.00077880746
0.00065751931
0.00023480068
0.00012511106
0.00021057053
0.00016681845
0.00017720948
0.00012035969
0.00014213466
0.0001492801
0.00026849063
0.00025022014
0.00029690614
0.00019577346
0.00022953443
0.00010128295
0.00012761969
0.00022232499
0.00018463178
0.00026804039
0.00032306022
0.00038849995
0.00010210465
0.00015569047
0.00012739088
0.00015365985
7.6131225e-05
3.2002306e-05
1.6935109e-05
0.0002663885
8.2473217e-05
3.7020625e-05
6.8342764e-05
4.3593623e-05
8.7417452e-05
4.5910949e-05
3.8263003e-05
3.9141235e-05
4.5359008e-05
4.1333898e-05
4.7877345e-05
4.8275531e-05
0.00031279854
0.00021107977
4.6166775e-05
9.2781087e-05
4.8840807e-05
0.00035115979
0.00020064369
4.0544659e-05
4.2911069e-05
5.0455669e-05
0.00023172332
0.00016241716
7.2910398e-05
0.00018559772
7.7484687e-05
4.3574452e-05
3.8677829e-05
4.1077569e-05
5.1589102e-05
6.417805e-05
0.00010992045
4.9331172e-05
5.2648629e-05
3.4980783e-05
2.9361528e-05
2.7660304e-05
2.3068013e-05
3.6074867e-05
3.3022093e-05
3.0087619e-05
3.1148818e-05
2.8287904e-05
2.6044804e-05
2.3467653e-05
2.4514509e-05
6.0056422e-05
9.2719489e-05
0.00010715078
0.00012847935
2.8283918e-05
4.6109627e-05
3.0147354e-05
2.3322402e-05
4.320605e-05
1.8291916e-05
1.8685199e-05
1.9298371e-05
2.1710572e-05
2.0447943e-05
2.2055783e-05
1.9311877e-05
2.1885101e-05
3.0188621e-05
0.00017320129
3.3981535e-05
3.1985508e-05
2.6585482e-05
2.4979113e-05
3.6384166e-05
3.4196786e-05
0.00014164401
0.00012326524
5.6316226e-05
0.00014924737
2.6525864e-05
4.0325483e-05
3.211783e-05
2.4872132e-05
3.2283474e-05
1.963461e-05
3.7810783e-05
2.0765951e-05
3.4672507e-05
1.9752488e-05
2.0601609e-05
1.7717666e-05
9.0892629e-05
0.00010123764
2.0125211e-05
1.7365498e-05
2.9370592e-05
3.209116e-05
3.2362998e-05
1.9903321e-05
1.7409698e-05
1.7812587e-05
1.602091e-05
1.7795504e-05
1.7475885e-05
1.7881985e-05
1.7847391e-05
3.2352255e-05
5.7374007e-05
7.1397138e-05
9.8372823e-05
7.7337069e-05
7.5987762e-05
1.7748037e-05
1.8934065e-05
1.7493521e-05
1.7262248e-05
1.7374763e-05
7.7863456e-05
3.2584337e-05
1.7250544e-05
1.7520222e-05
3.268706e-05
1.6706042e-05
1.7322557e-05
1.6437007e-05
1.7684514e-05
1.7574131e-05
1.7923913e-05
1.7914455e-05
7.7338773e-05
1.7330178e-05
1.7167865e-05
3.0258997e-05
3.1032256e-05
3.2699454e-05
3.2603064e-05
1.7566546e-05
1.7219486e-05
1.7133668e-05
1.7426534e-05
1.7462552e-05
1.7443314e-05
8.314356e-07
5.0815917e-06
1.0205519e-05
6.4421083e-06
1.1304257e-05
2.2977624e-06
3.6961112e-06
9.0190174e-06
7.7598786e-06
2.4105787e-05
3.7211915e-06
1.906162e-05
0.00010143483
0.00013411225
7.3541968e-05
5.624499e-05
8.0396301e-05
9.1960565e-05
0.00011582208
0.00010582539
7.0811081e-05
4.2911649e-06
2.2147633e-05
0.00024274281
0.00044680972
0.00051545372
0.00061431688
0.00058909247
0.0004443785
3.8362854e-05
6.1743337e-05
8.5449792e-05
0.00031471392
0.00028261559
0.00035973173
3.3018323e-05
2.973643e-05
2.6367698e-05
2.2288665e-05
0.00010847566
0.00013084132
0.00016373423
0.00020062231
1.7632216e-05
9.1341897e-05
3.0662703e-05
3.5260418e-05
8.8213162e-05
5.4936336e-05
8.3823469e-05
5.5443779e-05
6.4498526e-05
5.9489573e-05
4.4488433e-05
5.2602212e-05
5.1307101e-05
6.9968298e-05
6.1214283e-05
7.4608423e-05
7.929769e-05
6.9051075e-05
1.7401734e-05
1.1334362e-05
3.8514671e-05
1.3123239e-05
1.7887875e-05
2.9742125e-05
2.7864991e-05
3.4600137e-05
4.5603428e-05
5.6266226e-05
2.1593782e-05
1.8199576e-05
3.5836903e-05
3.1425181e-05
2.7171286e-05
4.4286227e-05
8.2188089e-05
1.8221779e-05
0.00013561572
7.2816555e-05
0.00018902602
8.4916245e-05
0.00017489148
6.3904685e-05
0.0001146611
7.3627964e-05
0.00015072327
1.2969503e-05
1.8559895e-05
4.6469949e-06
1.3950994e-05
5.2912968e-06
1.120324e-06
5.8410447e-06
9.5732985e-07
3.644275e-05
1.8079633e-05
1.7030297e-05
1.2398665e-05
8.31741e-06
1.9289018e-06
5.7773359e-06
9.6456384e-06
1.2583787e-05
9.3382011e-06
1.5888807e-05
1.2996775e-05
1.0363963e-05
3.7138934e-05
4.0688518e-05
7.8332333e-06
2.3318193e-05
0.00017538457
9.7150838e-05
5.4374695e-05
0.00029616229
6.7441379e-05
5.1130406e-05
3.3824244e-05
6.379572e-05
4.2035668e-05
4.2938547e-05
1.6452855e-05
3.8874635e-05
2.2522264e-05
1.1820899e-05
1.6972354e-05
4.8101243e-06
7.3546024e-06
6.6857697e-06
6.7380721e-06
8.1640871e-06
8.9482834e-06
8.4939641e-06
1.1223254e-05
1.0218604e-05
1.4402311e-05
1.6027491e-05
1.1846629e-05
1.4512114e-05
1.1432322e-05
1.3753038e-05
1.2450809e-05
0.00018970359
0.00018099646
0.00022569547
0.00012467269
0.00015393751
0.00014529141
6.4840281e-05
3.498879e-05
4.4320123e-05
3.6459364e-05
0.00014982989
2.6778612e-05
0.00018429652
0.00021059554
0.00016037676
9.9897272e-05
0.00013099478
4.5213103e-05
3.4411061e-06
1.0573424e-06
3.1803956e-06
2.8890749e-06
8.9932905e-06
1.6328483e-05
3.8732729e-05
1.4261204e-05
8.0129185e-05
5.3866017e-06
7.6151751e-07
6.8426122e-06
1.0827738e-05
1.1995907e-05
2.6667862e-05
1.4150866e-05
1.3286216e-05
4.383395e-06
8.6383645e-07
7.7527553e-06
1.2210922e-05
1.3393579e-05
6.0981936e-06
3.8831098e-06
2.625262e-06
2.3351969e-06
9.335182e-06
8.2420399e-06
1.0834845e-05
9.5749564e-06
1.5024916e-05
8.9406007e-05
9.7918744e-05
5.0525991e-05
3.15052e-05
2.9040087e-05
1.6239115e-05
1.662704e-05
7.3160154e-05
3.0874317e-05
3.0001386e-05
6.6346081e-05
2.3782591e-05
2.5653594e-05
2.7237291e-05
1.4066886e-05
1.3597671e-05
1.5217608e-05
1.2978758e-05
1.458588e-05
1.5212643e-05
1.5768539e-05
2.3981286e-05
1.3991596e-05
1.64795e-05
1.471902e-05
1.6904753e-05
1.229957e-05
1.3191036e-05
1.5972489e-05
1.5382485e-05
6.9804714e-05
3.2714107e-05
8.7125924e-05
3.8152801e-05
6.8175405e-06
1.797489e-05
4.4629584e-05
5.7173177e-05
6.4064597e-05
4.1318666e-06
6.6408771e-05
1.1119316e-05
0.00012790732
0.00016867623
2.5311083e-05
7.8658928e-05
0.00015286748
3.9372483e-05
2.8778089e-05
4.7845055e-05
0.00016315466
0.00011730602
0.00016064911
8.1873262e-05
1.5658051e-05
7.4242751e-05
0.00016598577
0.00018351159
0.00025358931
3.0819542e-05
0.00023845284
0.00020821539
1.6213374e-05
0.00067947039
0.000360874
0.00054835839
0.00045387398
0.00042642514
0.00020585413
0.043948092
0.047670968
0.050202414
0.0079590051
0.012560783
0.0026118107
0.031137035
0.038839901
0.0038929703
0.0066605873
0.022415707
0.01528972
0.023104915
0.015074828
0.0088884885
0.010590922
0.011143488
0.016666909
0.006364772
0.0036794157
0.0032127638
0.0022428703
0.0036076749
0.0019260631
0.0021060415
0.0015133018
0.0015205211
0.00095133013
0.0014051478
0.0054666993
0.005848251
0.011201737
0.011076479
0.009186117
0.031671717
0.021784012
0.022784527
0.021952006
0.016799852
0.024668164
0.02978194
4.9414187e-06
5.2655386e-06
4.4983813e-06
4.0982075e-06
3.967313e-06
3.8549399e-06
4.7751713e-06
6.3924607e-06
5.7257916e-06
6.8267772e-06
6.0876246e-06
1.8147606e-05
4.5482903e-06
3.7589757e-06
2.1011587e-05
2.8521214e-05
2.6963191e-05
4.8526758e-06
5.915415e-06
3.0988243e-05
6.3266472e-06
1.0947379e-05
9.4136364e-06
3.9376081e-05
4.7878093e-05
5.564747e-05
3.7400307e-06
3.5321541e-06
2.7251166e-06
1.3242246e-05
3.3290926e-06
3.4891918e-06
1.3702785e-05
1.7687908e-05
1.5939452e-05
3.1243996e-06
2.0581638e-05
3.9594921e-05
2.8265703e-05
3.2104433e-06
5.486401e-06
2.1707016e-05
1.277789e-05
6.6713078e-06
3.7177656e-05
3.08673e-05
5.0113695e-06
4.6400371e-06
5.3330651e-06
5.614244e-06
4.7491322e-06
4.2395651e-06
4.1714387e-06
4.3593433e-06
3.7706035e-06
3.9972003e-06
3.9281214e-06
3.7012327e-06
3.6283081e-06
5.0474942e-06
5.0712368e-06
5.9890372e-06
6.446811e-06
5.387508e-06
6.0761804e-06
7.2938688e-06
6.874219e-06
6.8874882e-06
7.7970306e-06
6.4692931e-06
6.4740894e-06
1.5738093e-05
1.4947504e-05
2.4428684e-05
3.344134e-05
1.0884767e-05
1.0222191e-05
8.3040369e-06
1.0118967e-05
8.8409545e-06
9.548018e-06
4.6559688e-05
3.5583214e-06
3.5277029e-06
3.3596778e-06
3.1737334e-06
2.9993782e-06
3.4168913e-06
3.2198638e-06
1.3066325e-05
1.5270589e-05
1.6793152e-05
2.4061143e-05
2.3077706e-05
1.9634738e-05
4.7222361e-05
3.8758214e-05
4.6623047e-05
3.3370107e-05
3.2417435e-05
2.7273922e-05
1.56442e-05
1.7747916e-05
1.8374674e-05
1.9932196e-05
2.0696041e-05
4.5098227e-05
4.2520349e-05
3.8791715e-05
2.5801711e-05
2.3819517e-05
2.1312894e-05
5.5109424e-05
1.6271012e-05
5.5274192e-05
5.6603009e-05
5.642998e-05
5.2440688e-05
2.6257651e-05
4.8256773e-05
4.265702e-06
3.9389526e-06
3.2381894e-06
4.0030469e-06
5.1808522e-06
4.1980186e-06
5.5341982e-06
5.1479427e-06
6.7700165e-06
5.5004963e-06
7.2486274e-06
9.5711763e-06
8.9231367e-06
3.0463179e-06
3.3209758e-06
2.941362e-06
2.5258655e-06
2.353266e-05
4.1298752e-05
7.3288197e-06
8.338186e-06
2.060269e-05
3.5721833e-05
6.7962392e-06
7.8003837e-06
8.920818e-06
1.0270435e-05
7.277959e-06
7.8026941e-07
4.4817992e-06
9.1391028e-07
2.3280461e-06
7.7164087e-06
1.1527569e-05
1.8093955e-05
1.2790415e-06
5.2737781e-06
1.5299808e-06
8.9730136e-06
3.8086452e-06
1.0774138e-06
4.5524738e-06
1.8453917e-06
9.0456272e-06
1.339383e-05
1.5167013e-05
3.4324577e-06
1.6522514e-05
2.7613451e-06
1.0890313e-05
4.3192921e-06
1.0170181e-05
2.2461105e-06
8.1924825e-06
2.731378e-05
2.2249059e-05
4.7116657e-06
5.6784695e-06
4.4706423e-06
4.4320164e-06
4.2103088e-06
5.3672107e-06
6.0489313e-06
5.7094133e-06
7.3327783e-06
7.8239213e-06
7.3411971e-06
8.3541649e-06
7.8255488e-06
6.8900823e-06
1.7160037e-05
1.977135e-05
2.2863159e-05
3.0906338e-05
2.6534269e-05
1.0184296e-05
8.3409488e-06
8.8945287e-06
9.4862048e-06
8.9217957e-06
9.5311699e-06
4.2368501e-05
3.6124889e-05
6.1546751e-06
3.832689e-06
5.2710192e-06
9.1430969e-06
6.6210401e-06
7.8632248e-06
1.0417136e-05
9.9702313e-06
8.9828026e-06
1.2469704e-05
1.0820357e-05
1.1530889e-05
3.1432894e-06
3.2912922e-06
1.1975494e-05
1.1459881e-05
1.4435819e-05
7.2303172e-06
6.2483318e-06
8.5504556e-06
1.2223588e-05
7.4578871e-06
1.0184167e-05
1.0690457e-05
1.0671555e-05
1.2575418e-05
1.2143883e-05
1.423738e-05
1.2675955e-05
1.4888516e-05
1.6792624e-05
2.2289761e-05
2.7797244e-05
1.3344054e-05
1.8069692e-05
1.4794468e-05
3.4773189e-05
3.1489358e-05
3.3871595e-05
2.8670366e-05
1.8291623e-05
2.5796785e-05
5.5103784e-06
4.9845707e-05
3.5081939e-05
4.2464901e-05
3.6820708e-06
3.4592552e-06
4.4972649e-06
4.799058e-06
5.9078706e-06
7.7647837e-06
6.319916e-06
9.0504604e-06
8.3987577e-06
8.3217844e-06
7.8355225e-06
2.8557381e-06
2.6901022e-06
4.6135398e-08
3.1570493e-07
1.855111e-06
4.8405856e-08
3.3355592e-07
1.2433019e-06
1.0461264e-06
6.6104056e-07
4.0422264e-07
1.595937e-06
7.429105e-07
9.743405e-07
1.3093578e-06
1.1031112e-06
7.3201501e-06
3.0607675e-06
6.98166e-07
4.271288e-07
7.8442904e-07
1.0277959e-06
6.3662963e-06
6.2468459e-06
5.4440454e-06
2.4206259e-06
1.9513941e-06
2.0495599e-06
2.278972e-06
1.7712627e-06
1.8044767e-06
1.3026018e-06
1.4600496e-06
2.5551994e-06
2.8360949e-06
2.404714e-06
3.0358158e-06
1.6591139e-06
1.7700743e-06
1.6225477e-06
1.505562e-06
1.3711526e-06
1.5346431e-06
9.6253757e-06
8.9538784e-06
2.2361938e-06
1.7678682e-06
2.0249887e-06
1.1546383e-05
1.3995712e-05
2.7708023e-06
2.3283971e-06
1.7035753e-06
1.5816679e-06
1.0127824e-05
8.1496356e-06
8.5060904e-06
2.6297972e-06
1.3630774e-07
3.9257431e-08
2.7297506e-07
2.2622699e-07
1.0785299e-06
1.1807433e-06
9.0644004e-07
1.1149802e-06
5.7714956e-07
5.7191635e-07
3.495878e-07
4.9146717e-07
6.4291478e-07
8.2254774e-07
8.4395806e-07
8.9975905e-07
2.2986061e-06
2.4789364e-06
2.0024816e-06
2.0574856e-06
2.183485e-06
2.080297e-06
2.3777592e-06
2.1626769e-06
1.6209934e-06
1.7633691e-06
1.5328581e-06
1.8267051e-06
1.1304446e-06
1.3585356e-06
1.2690097e-06
1.411022e-06
2.6200771e-06
2.7034776e-06
2.6829549e-06
2.5112794e-06
2.539303e-06
2.8639286e-06
1.6969645e-06
1.43943e-06
1.5089984e-06
1.7345189e-06
1.4116774e-06
1.5861867e-06
1.3093292e-06
1.5476074e-06
1.4365862e-07
4.2462435e-08
3.1252405e-07
2.3882326e-07
1.219329e-06
1.24401e-06
1.1752313e-06
1.0265514e-06
6.096946e-07
6.5281141e-07
3.9700928e-07
5.1929328e-07
8.6827891e-07
7.3041996e-07
9.4944974e-07
9.5910518e-07
1.2743141e-06
1.4293426e-06
1.4838049e-06
1.4264987e-06
2.1961946e-06
1.9127216e-06
1.8739788e-06
1.6297657e-06
2.1480071e-06
1.9745403e-06
2.6119523e-06
2.3826995e-06
2.4629344e-06
1.9654774e-06
1.6644639e-06
1.5553756e-06
1.6252322e-06
1.4682725e-06
6.6394171e-07
3.2653376e-06
6.224861e-07
7.7092683e-06
5.6573392e-06
5.3433105e-07
1.9818001e-06
8.1843605e-06
4.2242508e-06
5.3307044e-06
8.5795636e-06
6.9681122e-06
6.7324009e-06
4.5666436e-06
9.3384598e-06
1.0397739e-05
1.1800055e-05
1.0028075e-05
9.98286e-06
7.6034774e-06
9.9747729e-06
8.1193342e-06
4.4963043e-06
3.6243792e-06
1.1716693e-07
1.9534802e-07
1.0238209e-06
9.6643149e-07
4.9923024e-07
4.2505593e-07
7.120423e-07
7.7911456e-07
2.3471015e-06
2.1346423e-06
2.2221137e-06
2.2527341e-06
1.4880646e-06
1.5482687e-06
1.1795194e-06
1.2257245e-06
2.7712772e-06
2.9693872e-06
2.8064816e-06
2.6540435e-06
3.1061703e-06
2.9330753e-06
1.464228e-06
1.4868657e-06
1.3807226e-06
1.3465908e-06
1.3453983e-07
2.2072013e-07
1.1569875e-06
1.0955453e-06
5.675263e-07
4.8603287e-07
8.1103679e-07
8.8393993e-07
1.3297031e-06
1.378067e-06
2.1162796e-06
1.9605074e-06
2.5086221e-06
2.2363519e-06
2.1129804e-06
1.5417965e-06
1.506691e-06
0.00021972276
3.1844444e-05
2.073298e-05
2.6440703e-05
2.3114522e-05
3.1160223e-05
2.0318231e-05
1.9595323e-05
2.4792744e-05
1.9469812e-05
0.00012076702
5.0751917e-05
0.00014959994
0.00024874342
0.00026758832
0.00027668241
0.00027854363
0.0002596082
0.00022616249
0.00020261093
0.00014471359
0.00017785302
3.0354895e-05
2.9956729e-05
2.2927996e-05
2.1907791e-05
2.5440885e-05
2.8162736e-05
2.4351075e-05
2.7132003e-05
1.977096e-05
2.1729339e-05
2.1618244e-05
1.8499297e-05
2.3923521e-05
2.3220919e-05
0.00011347476
0.00012233414
2.8087246e-05
2.9196013e-05
2.5622776e-05
2.7375338e-05
2.0879046e-05
1.7452226e-05
2.3956234e-05
2.2373785e-05
0.00022275369
0.00021781771
0.00016279735
0.00018094648
0.00013507005
0.00017781378
2.3225292e-05
0.00014092722
0.00011566526
2.1702635e-05
0.00014957009
2.4583498e-05
0.00011107758
3.5766278e-05
1.7406184e-05
7.1293786e-05
5.3066779e-05
0.00010276861
0.00017258588
0.00016088931
0.00021241066
0.00022569601
0.00015743282
0.00019584706
0.00019771569
0.00016200838
2.865709e-05
2.4285556e-05
2.7019775e-05
2.5686569e-05
2.1085874e-05
2.036003e-05
2.2471078e-05
0.00013643986
9.7634806e-05
0.0001601805
0.0001286741
0.00014122755
7.9913056e-05
0.00010310714
0.00016839549
0.00013271686
0.00013335446
0.00017077428
0.00012935311
0.000119543
2.6580145e-05
2.4896509e-05
1.8809825e-05
2.0161703e-05
2.2727935e-05
0.00017152139
0.00013842546
0.00017877
0.00021200078
0.00017357691
0.00012648865
0.00023422036
0.00023641757
0.00022855104
0.00019288761
8.5595443e-05
0.00014045828
0.00049208838
0.00044242254
0.00045799839
0.00017176054
0.00013005692
0.00051993363
0.00033211892
6.6672984e-05
0.00023922444
0.00017386446
0.00017047933
0.00014980928
0.00053128487
0.00015617416
0.00037057067
0.0003674358
0.00026487563
0.00034511159
0.00011430174
7.960126e-05
8.7154919e-05
0.00034077296
0.00029383231
7.1581217e-05
3.5326583e-05
0.00023123544
0.00011558777
0.00015371914
0.0001512249
0.00020485001
0.00016475169
0.00013926516
0.00012614589
0.00011546792
0.00028960115
0.0002332953
0.00027176216
0.00022508919
0.00027762556
0.00021878882
0.00022384938
0.0002065113
0.00010536484
0.00011198237
0.00012125617
0.0001308249
0.00010497424
0.00016709776
0.0001208624
5.5046557e-05
0.00015120912
0.0001655719
0.00012166275
0.00015840016
0.00011069246
0.00010315954
9.4867342e-05
8.0029776e-05
6.2720164e-05
5.8039144e-05
7.2846527e-05
0.00054707154
0.00026789312
0.0001789519
0.00021537993
0.00019357781
0.00054705016
0.0001403805
0.00038570138
0.00038260859
0.00029181354
0.00031908752
0.00039044904
0.00012632333
0.00010892034
0.00017514545
0.00016952437
0.00018662665
0.00029473179
0.00029179027
0.00026142513
0.00024302668
9.2203376e-05
9.8443648e-05
0.00011278228
9.6785991e-05
0.00011980611
0.00011601058
7.3492859e-05
6.8099063e-05
1.8986281e-05
1.2872501e-05
1.5455421e-05
1.5476799e-05
1.1727072e-05
1.209585e-05
1.0023982e-05
1.4425037e-05
1.6438565e-05
9.444346e-05
6.5870143e-05
1.8145473e-05
8.8387532e-05
1.4660024e-05
0.00010333331
7.5645623e-05
1.3650555e-05
6.4822266e-05
0.00010029598
6.8185085e-05
3.7051944e-05
1.7733744e-05
1.8524511e-05
1.3975196e-05
1.3694692e-05
1.6557605e-05
1.519521e-05
1.6914384e-05
1.4562249e-05
1.1635563e-05
1.2563757e-05
1.1363461e-05
1.3104592e-05
1.0795194e-05
1.0672991e-05
1.3461893e-05
1.421627e-05
1.8006951e-05
1.7445831e-05
7.8762113e-05
8.2520279e-05
8.4221115e-05
6.8728537e-05
6.7859456e-05
8.4210007e-05
1.6904739e-05
1.6264886e-05
1.5743722e-05
1.3017581e-05
1.1836038e-05
1.2709994e-05
1.2124573e-05
1.1024281e-05
7.138761e-06
9.4107341e-06
0.00010531681
4.4864768e-05
5.8824507e-05
2.1031828e-05
1.2653848e-05
2.7649069e-05
5.387934e-05
9.9258905e-05
1.7347573e-05
1.4899949e-05
1.6238806e-05
1.5878938e-05
1.2438697e-05
1.2285603e-05
1.1516316e-05
1.3297952e-05
1.91551e-05
8.2366406e-05
6.9539072e-05
5.8807317e-05
0.00010381997
6.5265782e-05
0.00010405049
8.200336e-05
3.379175e-05
7.6784908e-05
5.8219949e-05
4.4186993e-05
6.0668266e-05
9.0292929e-05
6.925545e-05
7.713604e-05
1.5078952e-05
1.4045644e-05
9.7092027e-06
1.0469952e-05
1.1238018e-05
)


2486
(
4.4670355e-06
6.5595617e-06
4.3107837e-06
4.4276747e-06
4.0675709e-06
4.2726713e-06
1.4249307e-05
6.4997779e-06
1.3245131e-05
4.0314615e-06
1.1525284e-07
5.7542205e-07
5.1965941e-07
3.2292729e-06
4.0436015e-06
6.5761317e-07
4.2724343e-07
9.1432158e-07
1.1386294e-07
6.2658088e-07
1.3328074e-06
4.2500647e-07
5.64325e-07
6.1238554e-07
1.6983235e-06
4.4271043e-07
3.5204277e-07
5.516649e-07
6.5492052e-07
1.8532353e-06
8.9045172e-07
1.1261496e-06
1.5192942e-06
1.4523335e-06
4.2466972e-06
2.9638047e-06
4.2364235e-07
3.479718e-07
1.4129534e-05
1.4956502e-05
1.5184381e-05
1.4230317e-05
1.5287547e-05
1.3985573e-05
6.9937414e-06
4.7579135e-06
4.7244441e-06
4.9132425e-06
7.2443538e-06
4.8826598e-06
7.0424243e-06
7.1915879e-06
4.7905228e-06
4.8221439e-06
4.9475396e-06
4.7508753e-06
4.8525948e-06
4.7176549e-06
6.9404579e-06
4.4853004e-06
7.1573333e-06
4.4525031e-06
5.1483879e-06
5.0629141e-06
5.2628428e-06
7.2086509e-06
5.0935752e-06
5.0831268e-06
4.9928021e-06
4.9651573e-06
6.8830609e-06
5.2685256e-06
5.1822406e-06
4.9899891e-06
4.9100624e-06
7.1491801e-06
7.2058199e-06
5.0778082e-06
4.7111868e-06
4.5926789e-06
1.522791e-05
4.5600216e-06
4.6245254e-06
1.5452822e-05
4.6557587e-06
4.7942174e-06
4.6864734e-06
1.4149107e-05
1.4993223e-05
4.3344916e-06
4.3036472e-06
1.4363341e-05
7.0974068e-06
1.5564172e-05
1.450783e-05
7.1471993e-06
4.5337919e-06
4.3645096e-06
4.3940011e-06
4.422879e-06
5.0225164e-06
4.8608799e-06
5.4811098e-06
5.4568098e-06
5.1579703e-06
4.6701704e-06
1.1995891e-05
1.5071932e-05
1.4179929e-05
4.505907e-06
6.6159761e-06
4.6185397e-06
6.7841527e-06
4.6547573e-06
6.8362769e-06
4.348423e-06
4.5442582e-06
4.5816944e-06
4.4574992e-06
4.689931e-06
4.4925015e-06
4.1032139e-06
6.673838e-06
4.2065244e-06
4.2395645e-06
6.8904237e-06
4.3855657e-06
4.4218241e-06
4.5266253e-06
1.4504293e-05
1.3480493e-05
6.7284215e-06
1.3708887e-05
1.3931155e-05
4.1383355e-06
4.1727721e-06
4.2720043e-06
2.0778809e-06
1.1205138e-06
1.099045e-06
3.1331972e-06
3.2189044e-06
1.6547867e-06
6.6445712e-07
2.0016242e-06
3.3770441e-06
9.4621001e-08
8.8661823e-08
6.9065633e-07
9.3415443e-07
8.8809083e-07
1.1668435e-07
7.2288661e-07
9.247938e-07
9.3856709e-08
2.9088054e-07
4.9105947e-07
6.8313934e-07
4.7351552e-07
8.7718839e-07
1.2999952e-07
2.7585543e-07
6.8799578e-07
4.6658795e-07
5.9130707e-07
6.2906469e-07
1.9023702e-06
3.231678e-07
5.2215891e-07
1.1265278e-06
2.9131898e-07
3.3150582e-06
4.8828861e-07
3.9303004e-07
3.0396869e-06
2.479875e-06
5.8917459e-06
3.7507841e-06
3.9214021e-06
4.836498e-06
3.2215084e-06
2.7198545e-06
5.6395023e-06
3.3562831e-06
3.5091647e-06
2.8824854e-06
2.8553456e-06
2.6686656e-06
5.3710732e-06
1.3728032e-05
3.5771642e-06
4.0890343e-06
3.4007003e-06
2.5550469e-06
5.1113251e-06
1.0149768e-05
1.2550323e-05
1.1237837e-05
3.2008038e-06
1.2909484e-05