/*--------------------------------*- C++ -*----------------------------------*\
  =========                 |
  \\      /  F ield         | OpenFOAM: The Open Source CFD Toolbox
   \\    /   O peration     | Website:  https://openfoam.org
    \\  /    A nd           | Version:  8
     \\/     M anipulation  |
\*---------------------------------------------------------------------------*/
/*   Windows 32 and 64 bit porting by blueCAPE: http://www.bluecape.com.pt   *\
|  Based on Windows porting (2.0.x v4) by Symscape: http://www.symscape.com   |
\*---------------------------------------------------------------------------*/
FoamFile
{
    version     2.0;
    format      ascii;
    class       scalarListList;
    location    "constant/vegetation";
    object      kcLAIboundary;
}
// * * * * * * * * * * * * * * * * * * * * * * * * * * * * * * * * * * * * * //


5
(

659
(
0.94042593
0
0
0.099092042
0
0
0.037589742
0.31742583
0.098455868
0.010593312
0.62857843
1.0203475
0.034801852
0.00074126883
0.0074299867
0.19200772
0
0.078784685
0.089893597
0.02323642
0
0.039661045
0.46671727
1.0779163
0
0
0.33112954
0.56610252
0.73731959
0.082944443
0.2328558
0.29182792
1.0223464
0.0092750341
0.76069999
0.34163639
0.042350387
0.58293599
0.86242954
0
1.265772
0.54366997
0.30784946
0.0095861347
0.12803177
0.53322901
0
0.019948288
0.047914097
0
0.53092765
0.26828283
0.019361852
0.026740247
0
0.0010392576
0.26415297
0.77493623
0
0.022047818
0.25811593
0
0.80183139
0.65945572
0.04916913
0.036618362
0.26584357
0.58404975
0.02507597
0.70602747
1.1062834
1.4611186
0.23358448
0.27615197
0.15537378
0.39227438
0.25613094
0.0022013684
0
0.029359809
0
0.02920501
0.18850429
0.22363855
0
0
0.00014930581
0
0
0
0
0
0
0
0
0
0
0
0
0
0
0
0
0
0
0.082552167
0.02256604
0
0
0
0.017806247
0.081937995
0
0
0
0
0
0
0
0
0
0
0
0
0
0
0.0091905728
0
0
0.13458109
0.14639043
0.15473184
0.01329973
0
0
0
0
0
0
0
0
0
0
0
0.0028166494
0.010698748
0.02477707
0.010010965
0.035133166
0.1163913
0
0
0
0
0.0038490658
0.038662415
0.10203369
0
1.9053433e-05
0
0.00038571206
0
0.00016250337
0.0604106
0
0
0
0
0.055770014
1.6530367e-05
0
0
0
0
0
0
0
0
0
0
0
0
0
0
0
0
0
0
0
0
0
0
0
0
0
0
0
0
0
0
0
0
0
0
0
0
0.085977
0.038511084
0.00066005586
0.00094164352
0.16102181
0.011422067
0.11498958
0.0086992035
0.00061520775
0
0.0024777316
0.0052661494
0.010505678
7.7095506e-06
0.0056635457
0.008824009
0.00026525876
0.0008387012
0.0010036393
0.0039185663
0.0088250433
0.04651379
0.030694404
0.0056502333
0.0045374181
0.0039746756
0.0069056704
0.0052860174
0.008015527
0.0088059256
0.0067956749
0.0039032322
0.0068187305
0.0046348602
0.0058817543
0.0079417635
0.0053011012
0
0
0
0
0
0
0
0
0
0
0
0.0063170908
0.0023805431
0.0036398001
0.0023363715
0.0026702207
0.10363819
0.058517658
0.072199881
0.0027654282
0.0056113269
0.0047518253
0.0030299883
0.0029066401
0.0026530258
0.0024188637
0.001794723
0.0019435772
0.0031536051
0.0021173061
0.017624151
0.0027860664
0.0030501639
0.0077067388
0.0069087503
0.00098464052
0.038493761
0.0081175225
0.0057331828
0.065689526
0.036639701
0.1563594
9.7137912e-05
1.5933862e-05
0
0.00030853444
0.00053751602
0.0013184545
0.00036059366
0.0010080159
0.0019122589
3.1836344e-05
0.00047641408
0.00030305761
6.4435657e-05
6.3887149e-07
0.041586142
0.01743607
0
0
0
0
0
0
0.00052637085
0.0029105328
1.0311819e-05
0.0012930792
0.095947848
0
0
0
0
0
0
0
0
0
0
0
0
0
0
0
0
0
0
0
0
0
0
0
0
0
0
0
0
0
0
0
0
0
0
0
0
0
0
0
0
0
0
0
0
0
0
0
0
0
0
0
0
0
0
0
0
0
0
0
0
0
0
0
0
0
0
0
0
0
0
0
0
0
0
0
0
0
0
0
0
0
0
0
0
0
0
0
0
0
0
0
0
0
0
0
0
0
0
0
9.4135531e-07
0
0
0
0
0
0
0
0
0
0
0
0
0
0
0
0
0
0
0
0
0
0
0.046586538
0.076994262
0
0
0
0
0
0
1.8292417e-06
0.0047852591
0.0001452792
0
0
0
0
0
2.6557625e-07
0
0
0
0
0
0
0
0
0
0
0
0
0
0
0
0
0
0
0
0
0
0
0
0
0
0
0
0
0
0
0
0
0
0
0
0.018947352
0.016249159
0
0
0
0
0
0
0
1.615657e-05
1.7160026e-06
0
0
0
1.6884067e-05
1.9639818e-05
0
1.9598255e-05
2.0646745e-05
0
0
0
0
0
0
0
0
0
0
0
0
0
0
0
0.11920423
0.029256598
6.0549902e-05
5.6819164e-05
5.0838046e-05
3.4460068e-05
4.3252766e-05
2.5148389e-05
2.3226359e-05
1.6060519e-06
1.2814203e-05
0.011544762
0.00018242077
0.00012120504
0.00011953884
6.54258e-05
0.0001179035
0.056505228
0.047457175
0.0016688608
0.00053372097
0
0
0
0
0.00010822308
7.6738912e-05
0
0
0
0
0
0
0
0
0
0
0
0
0
0.0059605629
0
0
0
9.9155365e-06
1.2574101e-05
0
0
6.464651e-06
0
0
0
2.677706e-05
4.3079127e-05
0
0
0
0
0
0
0
0
0
0
0
0
0
0
0
0
0
0
0
0
0
0
0
0
0
0
0
0
0
0
0
0
0
0
0
0
0
0
6.1894109e-05
9.2647085e-05
5.9482606e-05
0.2885035
0.070556046
0.27465612
0.10519888
0.11906661
0.12502748
0.087009365
0.37600437
0.37562845
0.28525053
0.6910683
0.14830892
0.63409479
0.15677588
0.30077947
0.1947347
0.32255524
0.71669089
0.32966678
0.2817751
0.22831864
0.14978594
0.29571246
0.33663523
0.19714054
0.57479444
0.85026505
0.31946779
0.59135119
0.48830746
0.18228296
0.23057409
0.48478692
0.17203828
0.18309444
0.62566479
0.76212478
0.21799049
0.14766645
0.46642981
0.76811526
0.30456388
0.24812731
0.25149911
)


659
(
1000
0
0.0058371559
0.010885485
0
0
0.079373177
0.78687955
0.22164318
0.00032245
0.44387207
1.3569772
0.022804466
0.00096134073
0.029045095
0.5739183
0.0019209247
0.02618399
0.13599281
0.043003576
0
1000
1000
1000
0
0
1000
1000
1000
0.046705977
0.32057109
0.40876743
1.1793526
0.0025516484
1.1092166
0.55822912
0
0.81042464
1.1646164
0
1000
0.50971839
1000
0.021096483
0.17668425
1000
1000
1000
1000
1000
1000
1000
1000
1000
0
8.2968661e-05
0.11341866
1000
6.9899753e-05
0.0019765902
0.40293041
0
0.88601361
0.37066093
0.020817368
0.040041598
0.39958405
0.80167359
0.0015595066
0.92594473
1.3305211
1.2264225
0.33720644
0.38973043
1000
1000
1000
1000
1000
1000
1000
1000
1000
1000
1000
1000
1000
1000
1000
1000
1000
1000
1000
1000
1000
1000
1000
1000
1000
1000
1000
1000
1000
1000
1000
1000
1000
1000
1000
1000
1000
1000
1000
1000
1000
1000
1000
1000
1000
1000
1000
1000
1000
1000
1000
1000
1000
1000
1000
1000
1000
1000
1000
1000
1000
1000
1000
1000
1000
1000
1000
1000
1000
1000
1000
1000
1000
1000
1000
1000
1000
1000
1000
1000
1000
1000
1000
1000
1000
1000
1000
1000
1000
1000
1000
1000
1000
1000
1000
1000
1000
1000
1000
1000
1000
1000
1000
1000
1000
1000
1000
1000
1000
1000
1000
1000
1000
1000
1000
1000
1000
1000
1000
1000
1000
1000
1000
1000
1000
1000
1000
1000
1000
1000
1000
1000
1000
1000
1000
1000
1000
1000
1000
1000
1000
1000
1000
1000
1000
1000
1000
1000
1000
1000
1000
1000
1000
1000
1000
1000
1000
1000
1000
1000
1000
1000
1000
1000
1000
1000
1000
1000
1000
1000
1000
1000
1000
1000
1000
1000
1000
1000
1000
1000
1000
1000
1000
1000
1000
1000
1000
1000
1000
1000
1000
1000
1000
1000
1000
1000
1000
1000
1000
1000
1000
1000
1000
1000
1000
1000
1000
1000
1000
1000
1000
1000
1000
1000
1000
1000
1000
1000
1000
1000
1000
1000
1000
1000
1000
1000
1000
1000
1000
1000
1000
1000
1000
1000
1000
1000
1000
1000
1000
1000
1000
1000
1000
1000
1000
1000
1000
1000
1000
0
1000
1000
1000
1000
1000
1000
1000
1000
1000
1000
1000
1000
1000
1000
1000
1000
1000
0
0
1000
0
0
1000
0
0
1000
0
0
1000
1000
1000
0
0
1000
1000
0
1000
0
0
0
0
0
0
1000
0
0
0
1000
0
0
0
1000
1000
1000
1000
1000
1000
1000
1000
1000
1000
1000
1000
1000
1000
1000
1000
1000
1000
1000
1000
1000
1000
1000
1000
0
0
0
1000
0
0
1000
0
0
1000
0
0
1000
1000
1000
1000
1000
1000
1000
1000
1000
1000
1000
0
0
0
1000
0
0
0
1000
1000
0
0
0
1000
1000
1000
1000
1000
1000
1000
1000
1000
1000
1000
1000
1000
1000
1000
1000
1000
1000
1000
1000
1000
1000
1000
1000
1000
1000
1000
1000
1000
1000
1000
1000
1000
1000
1000
1000
1000
1000
1000
1000
1000
1000
1000
1000
1000
1000
1000
1000
1000
1000
1000
1000
1000
1000
1000
1000
1000
1000
1000
1000
1000
1000
1000
1000
1000
1000
1000
1000
1000
1000
1000
1000
1000
1000
1000
1000
1000
1000
1000
1000
1000
1000
1000
1000
1000
1000
1000
1000
1000
1000
1000
1000
1000
1000
1000
1000
1000
1000
1000
1000
1000
1000
1000
1000
1000
1000
1000
1000
1000
1000
1000
1000
1000
1000
1000
1000
1000
1000
1000
1000
1000
1000
1000
1000
1000
1000
1000
1000
1000
1000
1000
1000
1000
1000
1000
1000
1000
1000
1000
1000
1000
1000
1000
1000
1000
1000
1000
1000
1000
1000
1000
1000
1000
1000
1000
1000
1000
1000
1000
1000
1000
1000
1000
1000
1000
1000
1000
1000
1000
1000
1000
1000
1000
1000
1000
1000
1000
1000
1000
1000
1000
0.34204745
0.14092958
0.33905372
0.17955291
0.15287666
0.19548275
0.11405445
0.55945258
0.53856481
0.53361484
0.80815961
0.20417631
1.0487457
0.38076496
0.49525387
0.2413326
0.47976934
0.96378133
0.27215156
0.37307494
0.2097433
0.15561814
0.40420597
0.39086624
0.22881883
0.6380462
1.0861208
0.39421896
0.77927354
0.53971421
0.20299118
0.2885423
0.47889184
0.19213267
0.17967192
0.63023675
0.9086716
0.27181494
0.19134372
0.54008371
0.8751961
0.39885324
0.2673522
0.31257545
)


659
(
1000
0
1000
1000
0
0
1000
1000
1000
1000
1000
1000
1000
1000
1000
1000
0.024308231
1000
1000
0.097019851
0
1000
1000
1000
0
0
1000
1000
1000
1000
1000
1000
1000
0.073971859
1000
1000
0.14564311
1000
1000
0
1000
1000
1000
1000
1000
1000
1000
1000
1000
1000
1000
1000
1000
1000
0
0.029900822
1000
1000
0
1000
0.63869462
0
1000
1000
0.023974235
0.13814694
1000
1000
0.1560228
1000
1000
1000
0.35732087
0.70560213
1000
1000
1000
1000
1000
1000
1000
1000
1000
1000
1000
1000
1000
1000
1000
1000
1000
1000
1000
1000
1000
1000
1000
1000
1000
1000
1000
1000
1000
1000
1000
1000
1000
1000
1000
1000
1000
1000
1000
1000
1000
1000
1000
1000
1000
1000
1000
1000
1000
1000
1000
1000
1000
1000
1000
1000
1000
1000
1000
1000
1000
1000
1000
1000
1000
1000
1000
1000
1000
1000
1000
1000
1000
1000
1000
1000
1000
1000
1000
1000
1000
1000
1000
1000
1000
1000
1000
1000
1000
1000
1000
1000
1000
1000
1000
1000
1000
1000
1000
1000
1000
1000
1000
1000
1000
1000
1000
1000
1000
1000
1000
1000
1000
1000
1000
1000
1000
1000
1000
1000
1000
1000
1000
1000
1000
1000
1000
1000
1000
1000
1000
1000
1000
1000
1000
1000
1000
1000
1000
1000
1000
1000
1000
1000
1000
1000
1000
1000
1000
1000
1000
1000
1000
1000
1000
1000
1000
1000
1000
1000
1000
1000
1000
1000
1000
1000
1000
1000
1000
1000
1000
1000
1000
1000
1000
1000
1000
1000
1000
1000
1000
1000
1000
1000
1000
1000
1000
1000
1000
1000
1000
1000
1000
1000
1000
1000
1000
1000
1000
1000
1000
1000
1000
1000
1000
1000
1000
1000
1000
1000
1000
1000
1000
1000
1000
1000
1000
1000
1000
1000
1000
1000
1000
1000
1000
1000
1000
1000
1000
1000
1000
1000
1000
1000
1000
1000
1000
1000
1000
1000
1000
1000
1000
1000
1000
1000
1000
1000
1000
0
1000
1000
1000
1000
1000
1000
1000
1000
1000
1000
1000
1000
1000
1000
1000
1000
1000
0
0
1000
0
0
1000
0
0
1000
0
0
1000
1000
1000
0
0
1000
1000
0
1000
0
0
0
0
0
0
1000
0
0
0
1000
0
0
0
1000
1000
1000
1000
1000
1000
1000
1000
1000
1000
1000
1000
1000
1000
1000
1000
1000
1000
1000
1000
1000
1000
1000
1000
0
0
0
1000
0
0
1000
0
0
1000
0
0
1000
1000
1000
1000
1000
1000
1000
1000
1000
1000
1000
0
0
0
1000
0
0
0
1000
1000
0
0
0
1000
1000
1000
1000
1000
1000
1000
1000
1000
1000
1000
1000
1000
1000
1000
1000
1000
1000
1000
1000
1000
1000
1000
1000
1000
1000
1000
1000
1000
1000
1000
1000
1000
1000
1000
1000
1000
1000
1000
1000
1000
1000
1000
1000
1000
1000
1000
1000
1000
1000
1000
1000
1000
1000
1000
1000
1000
1000
1000
1000
1000
1000
1000
1000
1000
1000
1000
1000
1000
1000
1000
1000
1000
1000
1000
1000
1000
1000
1000
1000
1000
1000
1000
1000
1000
1000
1000
1000
1000
1000
1000
1000
1000
1000
1000
1000
1000
1000
1000
1000
1000
1000
1000
1000
1000
1000
1000
1000
1000
1000
1000
1000
1000
1000
1000
1000
1000
1000
1000
1000
1000
1000
1000
1000
1000
1000
1000
1000
1000
1000
1000
1000
1000
1000
1000
1000
1000
1000
1000
1000
1000
1000
1000
1000
1000
1000
1000
1000
1000
1000
1000
1000
1000
1000
1000
1000
1000
1000
1000
1000
1000
1000
1000
1000
1000
1000
1000
1000
1000
1000
1000
1000
1000
1000
1000
1000
1000
1000
1000
1000
1000
1000
1000
1000
1000
1000
1000
1000
1000
1000
1000
1000
1000
1000
1000
1000
1000
1000
1000
1000
1000
1000
1000
1000
1000
1000
1000
1000
1000
1000
1000
0.18512527
1000
1000
1000
1000
1000
1000
0.29542752
0.24834686
1000
1000
0.47644269
1000
0.44866086
)


659
(
1000
1000
1000
1000
1000
1000
1000
1000
1000
1000
1000
1000
1000
1000
1000
1000
1000
1000
1000
1000
1000
1000
1000
1000
0
0
1000
1000
1000
1000
1000
1000
1000
1000
1000
1000
1000
1000
1000
0
1000
1000
1000
1000
1000
1000
1000
1000
1000
1000
1000
1000
1000
1000
0
1000
1000
1000
0.0020572079
1000
1000
0.00064345743
1000
1000
0.025020479
0.20553673
1000
1000
1000
1000
1000
1000
1000
1000
1000
1000
1000
1000
1000
1000
1000
1000
1000
1000
1000
1000
1000
1000
1000
1000
1000
1000
1000
1000
1000
1000
1000
1000
1000
1000
1000
1000
1000
1000
1000
1000
1000
1000
1000
1000
1000
1000
1000
1000
1000
1000
1000
1000
1000
1000
1000
1000
1000
1000
1000
1000
1000
1000
1000
1000
1000
1000
1000
1000
1000
1000
1000
1000
1000
1000
1000
1000
1000
1000
1000
1000
1000
1000
1000
1000
1000
1000
1000
1000
1000
1000
1000
1000
1000
1000
1000
1000
1000
1000
1000
1000
1000
1000
1000
1000
1000
1000
1000
1000
1000
1000
1000
1000
1000
1000
1000
1000
1000
1000
1000
1000
1000
1000
1000
1000
1000
1000
1000
1000
1000
1000
1000
1000
1000
1000
1000
1000
1000
1000
1000
1000
1000
1000
1000
1000
1000
1000
1000
1000
1000
1000
1000
1000
1000
1000
1000
1000
1000
1000
1000
1000
1000
1000
1000
1000
1000
1000
1000
1000
1000
1000
1000
1000
1000
1000
1000
1000
1000
1000
1000
1000
1000
1000
1000
1000
1000
1000
1000
1000
1000
1000
1000
1000
1000
1000
1000
1000
1000
1000
1000
1000
1000
1000
1000
1000
1000
1000
1000
1000
1000
1000
1000
1000
1000
1000
1000
1000
1000
1000
1000
1000
1000
1000
1000
1000
1000
1000
1000
1000
1000
1000
1000
1000
1000
1000
1000
1000
1000
1000
1000
1000
1000
1000
1000
1000
1000
1000
1000
1000
1000
1000
1000
1000
1000
1000
1000
1000
1000
0
1000
1000
1000
1000
1000
1000
1000
1000
1000
1000
1000
1000
1000
1000
1000
1000
1000
0
0
1000
0
0
1000
0
0
1000
0
0
1000
1000
1000
0
0
1000
1000
0
1000
0
0
0
0
0
0
1000
0
0
0
1000
0
0
0
1000
1000
1000
1000
1000
1000
1000
1000
1000
1000
1000
1000
1000
1000
1000
1000
1000
1000
1000
1000
1000
1000
1000
1000
0
0
0
1000
0
0
1000
0
0
1000
0
0
1000
1000
1000
1000
1000
1000
1000
1000
1000
1000
1000
0
0
0
1000
0
0
0
1000
1000
0
0
0
1000
1000
1000
1000
1000
1000
1000
1000
1000
1000
1000
1000
1000
1000
1000
1000
1000
1000
1000
1000
1000
1000
1000
1000
1000
1000
1000
1000
1000
1000
1000
1000
1000
1000
1000
1000
1000
1000
1000
1000
1000
1000
1000
1000
1000
1000
1000
1000
1000
1000
1000
1000
1000
1000
1000
1000
1000
1000
1000
1000
1000
1000
1000
1000
1000
1000
1000
1000
1000
1000
1000
1000
1000
1000
1000
1000
1000
1000
1000
1000
1000
1000
1000
1000
1000
1000
1000
1000
1000
1000
1000
1000
1000
1000
1000
1000
1000
1000
1000
1000
1000
1000
1000
1000
1000
1000
1000
1000
1000
1000
1000
1000
1000
1000
1000
1000
1000
1000
1000
1000
1000
1000
1000
1000
1000
1000
1000
1000
1000
1000
1000
1000
1000
1000
1000
1000
1000
1000
1000
1000
1000
1000
1000
1000
1000
1000
1000
1000
1000
1000
1000
1000
1000
1000
1000
1000
1000
1000
1000
1000
1000
1000
1000
1000
1000
1000
1000
1000
1000
1000
1000
1000
1000
1000
1000
1000
1000
1000
1000
1000
1000
1000
1000
1000
1000
1000
1000
1000
1000
1000
1000
1000
1000
1000
1000
1000
1000
1000
1000
1000
1000
1000
1000
1000
1000
1000
1000
1000
1000
1000
1000
1000
1000
1000
1000
1000
1000
1000
1000
1000
1000
1000
1000
1000
1000
)


659
(
1000
1000
1000
1000
1000
1000
1000
1000
1000
1000
1000
1000
1000
1000
1000
1000
1000
1000
1000
1000
1000
1000
1000
1000
1000
1000
1000
1000
1000
1000
1000
1000
1000
1000
1000
1000
1000
1000
1000
1000
1000
1000
1000
1000
1000
1000
1000
1000
1000
1000
1000
1000
1000
1000
1000
1000
1000
1000
1000
1000
1000
0.00033817634
1000
1000
1000
1000
1000
1000
1000
1000
1000
1000
1000
1000
1000
1000
1000
1000
1000
1000
1000
1000
1000
1000
1000
1000
1000
1000
1000
1000
1000
1000
1000
1000
1000
1000
1000
1000
1000
1000
1000
1000
1000
1000
1000
1000
1000
1000
1000
1000
1000
1000
1000
1000
1000
1000
1000
1000
1000
1000
1000
1000
1000
1000
1000
1000
1000
1000
1000
1000
1000
1000
1000
1000
1000
1000
1000
1000
1000
1000
1000
1000
1000
1000
1000
1000
1000
1000
1000
1000
1000
1000
1000
1000
1000
1000
1000
1000
1000
1000
1000
1000
1000
1000
1000
1000
1000
1000
1000
1000
1000
1000
1000
1000
1000
1000
1000
1000
1000
1000
1000
1000
1000
1000
1000
1000
1000
1000
1000
1000
1000
1000
1000
1000
1000
1000
1000
1000
1000
1000
1000
1000
1000
1000
1000
1000
1000
1000
1000
1000
1000
1000
1000
1000
1000
1000
1000
1000
1000
1000
1000
1000
1000
1000
1000
1000
1000
1000
1000
1000
1000
1000
1000
1000
1000
1000
1000
1000
1000
1000
1000
1000
1000
1000
1000
1000
1000
1000
1000
1000
1000
1000
1000
1000
1000
1000
1000
1000
1000
1000
1000
1000
1000
1000
1000
1000
1000
1000
1000
1000
1000
1000
1000
1000
1000
1000
1000
1000
1000
1000
1000
1000
1000
1000
1000
1000
1000
1000
1000
1000
1000
1000
1000
1000
1000
1000
1000
1000
1000
1000
1000
1000
1000
1000
1000
1000
1000
1000
1000
1000
1000
1000
1000
1000
1000
1000
1000
1000
1000
1000
1000
1000
1000
0
1000
1000
1000
1000
1000
1000
1000
1000
1000
1000
1000
1000
1000
1000
1000
1000
1000
0
0
1000
0
0
1000
0
0
1000
0
0
1000
1000
1000
0
0
1000
1000
0
1000
0
0
0
0
0
0
1000
0
0
0
1000
0
0
0
1000
1000
1000
1000
1000
1000
1000
1000
1000
1000
1000
1000
1000
1000
1000
1000
1000
1000
1000
1000
1000
1000
1000
1000
0
0
0
1000
0
0
1000
0
0
1000
0
0
1000
1000
1000
1000
1000
1000
1000
1000
1000
1000
1000
0
0
0
1000
0
0
0
1000
1000
0
0
0
1000
1000
1000
1000
1000
1000
1000
1000
1000
1000
1000
1000
1000
1000
1000
1000
1000
1000
1000
1000
1000
1000
1000
1000
1000
1000
1000
1000
1000
1000
1000
1000
1000
1000
1000
1000
1000
1000
1000
1000
1000
1000
1000
1000
1000
1000
1000
1000
1000
1000
1000
1000
1000
1000
1000
1000
1000
1000
1000
1000
1000
1000
1000
1000
1000
1000
1000
1000
1000
1000
1000
1000
1000
1000
1000
1000
1000
1000
1000
1000
1000
1000
1000
1000
1000
1000
1000
1000
1000
1000
1000
1000
1000
1000
1000
1000
1000
1000
1000
1000
1000
1000
1000
1000
1000
1000
1000
1000
1000
1000
1000
1000
1000
1000
1000
1000
1000
1000
1000
1000
1000
1000
1000
1000
1000
1000
1000
1000
1000
1000
1000
1000
1000
1000
1000
1000
1000
1000
1000
1000
1000
1000
1000
1000
1000
1000
1000
1000
1000
1000
1000
1000
1000
1000
1000
1000
1000
1000
1000
1000
1000
1000
1000
1000
1000
1000
1000
1000
1000
1000
1000
1000
1000
1000
1000
1000
1000
1000
1000
1000
1000
1000
1000
1000
1000
1000
1000
1000
1000
1000
1000
1000
1000
1000
1000
1000
1000
1000
1000
1000
1000
1000
1000
1000
1000
1000
1000
1000
1000
1000
1000
1000
1000
1000
1000
1000
1000
1000
1000
1000
1000
1000
1000
1000
1000
)

)


// ************************************************************************* //
