/*--------------------------------*- C++ -*----------------------------------*\
  =========                 |
  \\      /  F ield         | OpenFOAM: The Open Source CFD Toolbox
   \\    /   O peration     | Website:  https://openfoam.org
    \\  /    A nd           | Version:  8
     \\/     M anipulation  |
\*---------------------------------------------------------------------------*/
/*   Windows 32 and 64 bit porting by blueCAPE: http://www.bluecape.com.pt   *\
|  Based on Windows porting (2.0.x v4) by Symscape: http://www.symscape.com   |
\*---------------------------------------------------------------------------*/
FoamFile
{
    version     2.0;
    format      ascii;
    class       polyBoundaryMesh;
    location    "constant/tower/polyMesh";
    object      boundary;
}
// * * * * * * * * * * * * * * * * * * * * * * * * * * * * * * * * * * * * * //

9
(
    buildings_to_air
    {
        type            mappedWall;
        inGroups        List<word> 
2
(
wall
mappedPatch
)
;
        nFaces          1492;
        startFace       35068;
        sampleMode      nearestPatchFace;
        sampleRegion    air;
        samplePatch     tower;
    }
    interior
    {
        type            patch;
        nFaces          1492;
        startFace       36560;
    }
    procBoundary5to1
    {
        type            processor;
        inGroups        List<word> 1(processor);
        nFaces          270;
        startFace       38052;
        matchTolerance  0.0001;
        myProcNo        5;
        neighbProcNo    1;
    }
    procBoundary5to2
    {
        type            processor;
        inGroups        List<word> 1(processor);
        nFaces          180;
        startFace       38322;
        matchTolerance  0.0001;
        myProcNo        5;
        neighbProcNo    2;
    }
    procBoundary5to6
    {
        type            processor;
        inGroups        List<word> 1(processor);
        nFaces          360;
        startFace       38502;
        matchTolerance  0.0001;
        myProcNo        5;
        neighbProcNo    6;
    }
    procBoundary5to7
    {
        type            processor;
        inGroups        List<word> 1(processor);
        nFaces          100;
        startFace       38862;
        matchTolerance  0.0001;
        myProcNo        5;
        neighbProcNo    7;
    }
    procBoundary5to8
    {
        type            processor;
        inGroups        List<word> 1(processor);
        nFaces          280;
        startFace       38962;
        matchTolerance  0.0001;
        myProcNo        5;
        neighbProcNo    8;
    }
    procBoundary5to13
    {
        type            processor;
        inGroups        List<word> 1(processor);
        nFaces          190;
        startFace       39242;
        matchTolerance  0.0001;
        myProcNo        5;
        neighbProcNo    13;
    }
    procBoundary5to14
    {
        type            processor;
        inGroups        List<word> 1(processor);
        nFaces          100;
        startFace       39432;
        matchTolerance  0.0001;
        myProcNo        5;
        neighbProcNo    14;
    }
)

// ************************************************************************* //
