/*--------------------------------*- C++ -*----------------------------------*\
  =========                 |
  \\      /  F ield         | OpenFOAM: The Open Source CFD Toolbox
   \\    /   O peration     | Website:  https://openfoam.org
    \\  /    A nd           | Version:  8
     \\/     M anipulation  |
\*---------------------------------------------------------------------------*/
/*   Windows 32 and 64 bit porting by blueCAPE: http://www.bluecape.com.pt   *\
|  Based on Windows porting (2.0.x v4) by Symscape: http://www.symscape.com   |
\*---------------------------------------------------------------------------*/
FoamFile
{
    version     2.0;
    format      ascii;
    class       extendedFeatureEdgeMesh;
    location    "constant/extendedFeatureEdgeMesh";
    object      tower.extendedFeatureEdgeMesh;
}
// * * * * * * * * * * * * * * * * * * * * * * * * * * * * * * * * * * * * * //

// points

1428
(
(116 165.97946 -2.5996982e-11)
(116 165.97946 8.4970465)
(121 165.97946 -2.5996982e-11)
(121 165.97946 8.4970465)
(121 173 -2.5996982e-11)
(121 173 8.4970465)
(116 173 -2.5996982e-11)
(116 173 8.4970465)
(105 185.97946 -1.6298806e-11)
(105 185.97946 8.4970465)
(121 185.97946 -1.6298806e-11)
(121 185.97946 8.4970465)
(121 193 -1.6298806e-11)
(121 193 8.4970465)
(105 193 -1.6298806e-11)
(105 193 8.4970465)
(105 165.97946 -1.6298806e-11)
(105 165.97946 8.4970465)
(112.93221 165.97946 -1.6298806e-11)
(112.93221 165.97946 8.4970465)
(112.93221 173 -1.6298806e-11)
(112.93221 173 8.4970465)
(105 173 -1.6298806e-11)
(105 173 8.4970465)
(116 208.02054 -4.2295788e-11)
(116 208.02054 8.4970465)
(121 208.02054 -4.2295788e-11)
(121 208.02054 8.4970465)
(121 215.04108 -4.2295788e-11)
(121 215.04108 8.4970465)
(116 215.04108 -4.2295788e-11)
(116 215.04108 8.4970465)
(105 208.02054 -3.2597612e-11)
(105 208.02054 8.4970465)
(112.93221 208.02054 -3.2597612e-11)
(112.93221 208.02054 8.4970465)
(112.93221 215.04108 -3.2597612e-11)
(112.93221 215.04108 8.4970465)
(105 215.04108 -3.2597612e-11)
(105 215.04108 8.4970465)
(116 165.97946 0.31470543)
(116.3125 165.97946 -2.5996982e-11)
(116 165.97946 0.94411629)
(116 165.97946 0.62941086)
(116.625 165.97946 -2.5996982e-11)
(116 165.97946 1.2588217)
(116 165.97946 1.8882326)
(116 165.97946 1.5735272)
(116 165.97946 2.5176435)
(116 165.97946 2.2029381)
(116 165.97946 2.8323488)
(116 165.97946 3.4617598)
(116 165.97946 3.1470544)
(116 165.97946 3.7764652)
(116 165.97946 4.0911708)
(116.9375 165.97946 -2.5996982e-11)
(117.25 165.97946 -2.5996982e-11)
(117.5625 165.97946 -2.5996982e-11)
(117.875 165.97946 -2.5996982e-11)
(118.1875 165.97946 -2.5996982e-11)
(118.5 165.97946 -2.5996982e-11)
(116 165.97946 4.7205815)
(116 165.97946 4.4058762)
(116 165.97946 5.3499923)
(116 165.97946 5.0352869)
(116 165.97946 5.9794035)
(116 165.97946 5.6646976)
(116 165.97946 6.6088142)
(116 165.97946 6.2941089)
(116 165.97946 6.9235196)
(116 165.97946 7.8676357)
(116 165.97946 7.5529304)
(116.3125 165.97946 8.4970465)
(116 165.97946 7.238225)
(117.5625 165.97946 8.4970465)
(117.25 165.97946 8.4970465)
(118.1875 165.97946 8.4970465)
(117.875 165.97946 8.4970465)
(118.5 165.97946 8.4970465)
(118.8125 165.97946 -2.5996982e-11)
(119.4375 165.97946 -2.5996982e-11)
(119.75 165.97946 -2.5996982e-11)
(120.0625 165.97946 -2.5996982e-11)
(120.375 165.97946 -2.5996982e-11)
(121 165.97946 0.31470543)
(121 165.97946 2.2029381)
(121 165.97946 2.5176435)
(121 165.97946 3.7764652)
(121 165.97946 4.0911708)
(118.8125 165.97946 8.4970465)
(120.0625 165.97946 8.4970465)
(119.75 165.97946 8.4970465)
(121 165.97946 5.9794035)
(121 165.97946 6.2941089)
(121 165.97946 7.8676357)
(120.375 165.97946 8.4970465)
(121 165.97946 4.4058762)
(121 166.29858 -2.5996982e-11)
(121 165.97946 0.94411629)
(121 165.97946 0.62941086)
(121 165.97946 1.2588217)
(121 166.61769 -2.5996982e-11)
(121 165.97946 1.5735272)
(121 165.97946 1.8882326)
(121 165.97946 2.8323488)
(121 165.97946 3.1470544)
(121 165.97946 3.4617598)
(121 166.93681 -2.5996982e-11)
(121 167.25592 -2.5996982e-11)
(121 167.57504 -2.5996982e-11)
(121 167.89415 -2.5996982e-11)
(121 168.21327 -2.5996982e-11)
(121 168.53238 -2.5996982e-11)
(121 168.8515 -2.5996982e-11)
(121 169.17061 -2.5996982e-11)
(121 169.48973 -2.5996982e-11)
(121 165.97946 4.7205815)
(121 165.97946 5.3499923)
(121 165.97946 5.0352869)
(121 165.97946 5.6646976)
(121 165.97946 6.9235196)
(121 165.97946 6.6088142)
(121 165.97946 7.238225)
(121 165.97946 7.5529304)
(121 166.29858 8.4970465)
(121 169.48973 8.4970465)
(121 169.17061 8.4970465)
(121 168.53238 8.4970465)
(121 168.21327 8.4970465)
(121 169.80885 -2.5996982e-11)
(121 170.12796 -2.5996982e-11)
(121 170.44708 -2.5996982e-11)
(121 170.76619 -2.5996982e-11)
(121 171.08531 -2.5996982e-11)
(121 171.40442 -2.5996982e-11)
(121 171.72354 -2.5996982e-11)
(121 172.04265 -2.5996982e-11)
(121 172.36177 -2.5996982e-11)
(121 173 0.31470543)
(121 173 0.94411629)
(121 173 1.2588217)
(121 173 1.8882326)
(121 173 2.2029381)
(121 173 3.7764652)
(121 173 4.0911708)
(121 169.80885 8.4970465)
(121 172.36177 8.4970465)
(121 172.04265 8.4970465)
(121 173 7.8676357)
(121 173 4.4058762)
(120.6875 173 -2.5996982e-11)
(121 173 0.62941086)
(120.375 173 -2.5996982e-11)
(121 173 1.5735272)
(121 173 2.5176435)
(121 173 2.8323488)
(121 173 3.4617598)
(121 173 3.1470544)
(120.0625 173 -2.5996982e-11)
(119.75 173 -2.5996982e-11)
(119.4375 173 -2.5996982e-11)
(119.125 173 -2.5996982e-11)
(118.8125 173 -2.5996982e-11)
(118.5 173 -2.5996982e-11)
(121 173 4.7205815)
(121 173 5.3499923)
(121 173 5.0352869)
(121 173 5.9794035)
(121 173 5.6646976)
(121 173 6.6088142)
(121 173 6.2941089)
(121 173 6.9235196)
(121 173 7.5529304)
(120.6875 173 8.4970465)
(121 173 7.238225)
(119.4375 173 8.4970465)
(119.75 173 8.4970465)
(118.8125 173 8.4970465)
(119.125 173 8.4970465)
(118.5 173 8.4970465)
(118.1875 173 -2.5996982e-11)
(117.5625 173 -2.5996982e-11)
(117.25 173 -2.5996982e-11)
(116.9375 173 -2.5996982e-11)
(116.625 173 -2.5996982e-11)
(116 173 0.31470543)
(116 173 2.2029381)
(116 173 2.5176435)
(116 173 3.7764652)
(116 173 4.0911708)
(118.1875 173 8.4970465)
(116.9375 173 8.4970465)
(117.25 173 8.4970465)
(116 173 5.9794035)
(116 173 6.2941089)
(116 173 7.8676357)
(116.625 173 8.4970465)
(116 173 4.4058762)
(116 172.68088 -2.5996982e-11)
(116 173 0.94411629)
(116 173 0.62941086)
(116 173 1.2588217)
(116 172.36177 -2.5996982e-11)
(116 173 1.5735272)
(116 173 1.8882326)
(116 173 2.8323488)
(116 173 3.1470544)
(116 173 3.4617598)
(116 172.04265 -2.5996982e-11)
(116 171.72354 -2.5996982e-11)
(116 171.40442 -2.5996982e-11)
(116 171.08531 -2.5996982e-11)
(116 170.76619 -2.5996982e-11)
(116 170.44708 -2.5996982e-11)
(116 170.12796 -2.5996982e-11)
(116 169.80885 -2.5996982e-11)
(116 169.48973 -2.5996982e-11)
(116 173 4.7205815)
(116 173 5.3499923)
(116 173 5.0352869)
(116 173 5.6646976)
(116 173 6.9235196)
(116 173 6.6088142)
(116 173 7.238225)
(116 173 7.5529304)
(116 172.68088 8.4970465)
(116 169.48973 8.4970465)
(116 169.80885 8.4970465)
(116 170.44708 8.4970465)
(116 170.76619 8.4970465)
(116 169.17061 -2.5996982e-11)
(116 168.8515 -2.5996982e-11)
(116 168.53238 -2.5996982e-11)
(116 168.21327 -2.5996982e-11)
(116 167.89415 -2.5996982e-11)
(116 167.57504 -2.5996982e-11)
(116 167.25592 -2.5996982e-11)
(116 166.93681 -2.5996982e-11)
(116 166.61769 -2.5996982e-11)
(116 169.17061 8.4970465)
(116 166.61769 8.4970465)
(116 166.93681 8.4970465)
(117.875 173 -2.5996982e-11)
(119.125 165.97946 -2.5996982e-11)
(116 167.25592 8.4970465)
(116.625 165.97946 8.4970465)
(116 167.89415 8.4970465)
(116 167.57504 8.4970465)
(116 168.53238 8.4970465)
(116 168.21327 8.4970465)
(116 168.8515 8.4970465)
(116.9375 165.97946 8.4970465)
(116 170.12796 8.4970465)
(116 171.08531 8.4970465)
(116 171.72354 8.4970465)
(116 171.40442 8.4970465)
(116 172.36177 8.4970465)
(116 172.04265 8.4970465)
(117.5625 173 8.4970465)
(117.875 173 8.4970465)
(119.125 165.97946 8.4970465)
(119.4375 165.97946 8.4970465)
(121 167.89415 8.4970465)
(120.0625 173 8.4970465)
(105 185.97946 0.31470543)
(105.32 185.97946 -1.6298806e-11)
(105.64 185.97946 -1.6298806e-11)
(105 185.97946 0.94411629)
(105 185.97946 0.62941086)
(105 185.97946 1.2588217)
(105.96 185.97946 -1.6298806e-11)
(106.28 185.97946 -1.6298806e-11)
(106.6 185.97946 -1.6298806e-11)
(106.92 185.97946 -1.6298806e-11)
(107.24 185.97946 -1.6298806e-11)
(105 185.97946 1.5735272)
(105 185.97946 2.2029381)
(105 185.97946 1.8882326)
(105 185.97946 2.8323488)
(105 185.97946 2.5176435)
(105 185.97946 3.4617598)
(105 185.97946 3.1470544)
(105 185.97946 3.7764652)
(105 185.97946 4.0911708)
(107.56 185.97946 -1.6298806e-11)
(107.88 185.97946 -1.6298806e-11)
(108.2 185.97946 -1.6298806e-11)
(108.52 185.97946 -1.6298806e-11)
(108.84 185.97946 -1.6298806e-11)
(109.16 185.97946 -1.6298806e-11)
(109.48 185.97946 -1.6298806e-11)
(109.8 185.97946 -1.6298806e-11)
(110.12 185.97946 -1.6298806e-11)
(110.44 185.97946 -1.6298806e-11)
(110.76 185.97946 -1.6298806e-11)
(111.08 185.97946 -1.6298806e-11)
(111.4 185.97946 -1.6298806e-11)
(111.72 185.97946 -1.6298806e-11)
(112.04 185.97946 -1.6298806e-11)
(112.36 185.97946 -1.6298806e-11)
(112.68 185.97946 -1.6298806e-11)
(113 185.97946 -1.6298806e-11)
(105 185.97946 4.4058762)
(105 185.97946 5.0352869)
(105 185.97946 4.7205815)
(105 185.97946 5.6646976)
(105 185.97946 5.3499923)
(105 185.97946 6.2941089)
(105 185.97946 5.9794035)
(105 185.97946 6.6088142)
(105 185.97946 7.238225)
(105 185.97946 6.9235196)
(105 185.97946 7.8676357)
(105 185.97946 7.5529304)
(105.32 185.97946 8.4970465)
(106.92 185.97946 8.4970465)
(106.6 185.97946 8.4970465)
(112.68 185.97946 8.4970465)
(112.36 185.97946 8.4970465)
(113.64 185.97946 -1.6298806e-11)
(113.96 185.97946 -1.6298806e-11)
(113.32 185.97946 -1.6298806e-11)
(114.28 185.97946 -1.6298806e-11)
(114.6 185.97946 -1.6298806e-11)
(114.92 185.97946 -1.6298806e-11)
(115.24 185.97946 -1.6298806e-11)
(115.56 185.97946 -1.6298806e-11)
(115.88 185.97946 -1.6298806e-11)
(116.2 185.97946 -1.6298806e-11)
(116.52 185.97946 -1.6298806e-11)
(116.84 185.97946 -1.6298806e-11)
(117.16 185.97946 -1.6298806e-11)
(117.48 185.97946 -1.6298806e-11)
(117.8 185.97946 -1.6298806e-11)
(118.12 185.97946 -1.6298806e-11)
(118.44 185.97946 -1.6298806e-11)
(118.76 185.97946 -1.6298806e-11)
(119.08 185.97946 -1.6298806e-11)
(119.4 185.97946 -1.6298806e-11)
(119.72 185.97946 -1.6298806e-11)
(120.04 185.97946 -1.6298806e-11)
(120.36 185.97946 -1.6298806e-11)
(121 185.97946 0.31470543)
(121 185.97946 0.94411629)
(121 185.97946 1.2588217)
(121 185.97946 3.7764652)
(121 185.97946 4.0911708)
(115.56 185.97946 8.4970465)
(115.24 185.97946 8.4970465)
(118.76 185.97946 8.4970465)
(118.44 185.97946 8.4970465)
(121 185.97946 4.4058762)
(119.4 185.97946 8.4970465)
(119.08 185.97946 8.4970465)
(120.36 185.97946 8.4970465)
(120.04 185.97946 8.4970465)
(121 185.97946 7.8676357)
(121 186.29858 -1.6298806e-11)
(121 185.97946 0.62941086)
(121 186.61769 -1.6298806e-11)
(121 185.97946 1.5735272)
(121 185.97946 2.2029381)
(121 185.97946 1.8882326)
(121 185.97946 2.8323488)
(121 185.97946 2.5176435)
(121 185.97946 3.1470544)
(121 185.97946 3.4617598)
(121 186.93681 -1.6298806e-11)
(121 187.25592 -1.6298806e-11)
(121 187.57504 -1.6298806e-11)
(121 187.89415 -1.6298806e-11)
(121 188.21327 -1.6298806e-11)
(121 188.53238 -1.6298806e-11)
(121 188.8515 -1.6298806e-11)
(121 189.17061 -1.6298806e-11)
(121 189.48973 -1.6298806e-11)
(121 185.97946 4.7205815)
(121 185.97946 5.3499923)
(121 185.97946 5.0352869)
(121 185.97946 5.6646976)
(121 185.97946 6.2941089)
(121 185.97946 5.9794035)
(121 185.97946 6.9235196)
(121 185.97946 6.6088142)
(121 185.97946 7.238225)
(121 185.97946 7.5529304)
(121 186.29858 8.4970465)
(121 189.48973 8.4970465)
(121 189.17061 8.4970465)
(121 188.53238 8.4970465)
(121 188.21327 8.4970465)
(121 189.80885 -1.6298806e-11)
(121 190.12796 -1.6298806e-11)
(121 190.44708 -1.6298806e-11)
(121 190.76619 -1.6298806e-11)
(121 191.08531 -1.6298806e-11)
(121 191.40442 -1.6298806e-11)
(121 191.72354 -1.6298806e-11)
(121 192.04265 -1.6298806e-11)
(121 192.36177 -1.6298806e-11)
(121 193 0.31470543)
(121 193 0.94411629)
(121 193 1.2588217)
(121 193 1.8882326)
(121 193 2.2029381)
(121 193 3.7764652)
(121 193 4.0911708)
(121 189.80885 8.4970465)
(121 192.36177 8.4970465)
(121 192.04265 8.4970465)
(121 193 7.8676357)
(121 193 4.4058762)
(120.68 193 -1.6298806e-11)
(121 193 0.62941086)
(120.04 193 -1.6298806e-11)
(119.72 193 -1.6298806e-11)
(119.4 193 -1.6298806e-11)
(119.08 193 -1.6298806e-11)
(118.76 193 -1.6298806e-11)
(121 193 1.5735272)
(121 193 2.8323488)
(121 193 2.5176435)
(121 193 3.4617598)
(121 193 3.1470544)
(118.44 193 -1.6298806e-11)
(118.12 193 -1.6298806e-11)
(117.8 193 -1.6298806e-11)
(117.48 193 -1.6298806e-11)
(117.16 193 -1.6298806e-11)
(116.84 193 -1.6298806e-11)
(116.52 193 -1.6298806e-11)
(116.2 193 -1.6298806e-11)
(115.88 193 -1.6298806e-11)
(115.56 193 -1.6298806e-11)
(115.24 193 -1.6298806e-11)
(114.92 193 -1.6298806e-11)
(114.6 193 -1.6298806e-11)
(114.28 193 -1.6298806e-11)
(113.96 193 -1.6298806e-11)
(113.64 193 -1.6298806e-11)
(113.32 193 -1.6298806e-11)
(121 193 5.0352869)
(121 193 4.7205815)
(121 193 5.6646976)
(121 193 5.3499923)
(121 193 6.2941089)
(121 193 5.9794035)
(121 193 6.6088142)
(121 193 7.238225)
(121 193 6.9235196)
(121 193 7.5529304)
(120.68 193 8.4970465)
(120.36 193 8.4970465)
(119.08 193 8.4970465)
(119.4 193 8.4970465)
(118.44 193 8.4970465)
(118.76 193 8.4970465)
(113.96 193 8.4970465)
(114.28 193 8.4970465)
(113.32 193 8.4970465)
(113.64 193 8.4970465)
(113 193 8.4970465)
(112.68 193 -1.6298806e-11)
(112.36 193 -1.6298806e-11)
(112.04 193 -1.6298806e-11)
(111.4 193 -1.6298806e-11)
(111.08 193 -1.6298806e-11)
(110.76 193 -1.6298806e-11)
(110.44 193 -1.6298806e-11)
(110.12 193 -1.6298806e-11)
(111.72 193 -1.6298806e-11)
(109.8 193 -1.6298806e-11)
(109.48 193 -1.6298806e-11)
(109.16 193 -1.6298806e-11)
(108.84 193 -1.6298806e-11)
(107.88 193 -1.6298806e-11)
(107.56 193 -1.6298806e-11)
(107.24 193 -1.6298806e-11)
(105.64 193 -1.6298806e-11)
(105 193 0.31470543)
(105 193 0.94411629)
(105 193 1.2588217)
(105 193 3.7764652)
(105 193 4.0911708)
(112.68 193 8.4970465)
(111.72 193 8.4970465)
(112.04 193 8.4970465)
(108.52 193 8.4970465)
(108.84 193 8.4970465)
(107.88 193 8.4970465)
(108.2 193 8.4970465)
(107.24 193 8.4970465)
(107.56 193 8.4970465)
(105 193 4.4058762)
(106.28 193 8.4970465)
(106.6 193 8.4970465)
(105.96 193 8.4970465)
(105 193 7.8676357)
(105.64 193 8.4970465)
(105 192.68088 -1.6298806e-11)
(105 193 0.62941086)
(105 192.36177 -1.6298806e-11)
(105 193 1.5735272)
(105 193 2.2029381)
(105 193 1.8882326)
(105 193 2.8323488)
(105 193 2.5176435)
(105 193 3.1470544)
(105 193 3.4617598)
(105 192.04265 -1.6298806e-11)
(105 191.72354 -1.6298806e-11)
(105 191.40442 -1.6298806e-11)
(105 191.08531 -1.6298806e-11)
(105 190.76619 -1.6298806e-11)
(105 190.44708 -1.6298806e-11)
(105 190.12796 -1.6298806e-11)
(105 189.80885 -1.6298806e-11)
(105 189.48973 -1.6298806e-11)
(105 193 4.7205815)
(105 193 5.3499923)
(105 193 5.0352869)
(105 193 5.6646976)
(105 193 6.2941089)
(105 193 5.9794035)
(105 193 6.9235196)
(105 193 6.6088142)
(105 193 7.238225)
(105 193 7.5529304)
(105 192.68088 8.4970465)
(105 189.48973 8.4970465)
(105 189.80885 8.4970465)
(105 190.44708 8.4970465)
(105 190.76619 8.4970465)
(105 189.17061 -1.6298806e-11)
(105 188.8515 -1.6298806e-11)
(105 188.53238 -1.6298806e-11)
(105 188.21327 -1.6298806e-11)
(105 187.89415 -1.6298806e-11)
(105 187.57504 -1.6298806e-11)
(105 187.25592 -1.6298806e-11)
(105 186.93681 -1.6298806e-11)
(105 186.61769 -1.6298806e-11)
(105 189.17061 8.4970465)
(105 186.61769 8.4970465)
(105 186.93681 8.4970465)
(105.96 193 -1.6298806e-11)
(106.28 193 -1.6298806e-11)
(106.6 193 -1.6298806e-11)
(106.92 193 -1.6298806e-11)
(108.2 193 -1.6298806e-11)
(108.52 193 -1.6298806e-11)
(113 193 -1.6298806e-11)
(120.36 193 -1.6298806e-11)
(105.64 185.97946 8.4970465)
(105.96 185.97946 8.4970465)
(107.24 185.97946 8.4970465)
(107.56 185.97946 8.4970465)
(107.88 185.97946 8.4970465)
(105 187.57504 8.4970465)
(105 187.25592 8.4970465)
(105 188.21327 8.4970465)
(105 187.89415 8.4970465)
(105 188.8515 8.4970465)
(105 188.53238 8.4970465)
(108.2 185.97946 8.4970465)
(108.52 185.97946 8.4970465)
(108.84 185.97946 8.4970465)
(109.16 185.97946 8.4970465)
(109.48 185.97946 8.4970465)
(109.8 185.97946 8.4970465)
(110.12 185.97946 8.4970465)
(110.44 185.97946 8.4970465)
(110.76 185.97946 8.4970465)
(111.08 185.97946 8.4970465)
(111.4 185.97946 8.4970465)
(111.72 185.97946 8.4970465)
(112.04 185.97946 8.4970465)
(113 185.97946 8.4970465)
(113.32 185.97946 8.4970465)
(105 190.12796 8.4970465)
(105 191.08531 8.4970465)
(105 191.72354 8.4970465)
(105 191.40442 8.4970465)
(105 192.36177 8.4970465)
(105 192.04265 8.4970465)
(106.92 193 8.4970465)
(112.36 193 8.4970465)
(113.64 185.97946 8.4970465)
(113.96 185.97946 8.4970465)
(114.28 185.97946 8.4970465)
(114.6 185.97946 8.4970465)
(114.92 185.97946 8.4970465)
(115.88 185.97946 8.4970465)
(116.2 185.97946 8.4970465)
(116.52 185.97946 8.4970465)
(116.84 185.97946 8.4970465)
(117.16 185.97946 8.4970465)
(117.48 185.97946 8.4970465)
(117.8 185.97946 8.4970465)
(118.12 185.97946 8.4970465)
(119.72 185.97946 8.4970465)
(121 186.61769 8.4970465)
(121 186.93681 8.4970465)
(118.12 193 8.4970465)
(119.72 193 8.4970465)
(105 165.97946 0.31470543)
(105.31729 165.97946 -1.6298806e-11)
(105 165.97946 0.62941086)
(105 165.97946 1.2588217)
(105 165.97946 0.94411629)
(105 165.97946 1.5735272)
(105.63457 165.97946 -1.6298806e-11)
(105 165.97946 1.8882326)
(105 165.97946 2.2029381)
(105 165.97946 2.5176435)
(105 165.97946 3.1470544)
(105 165.97946 2.8323488)
(105 165.97946 3.4617598)
(105 165.97946 4.0911708)
(105 165.97946 3.7764652)
(105.95187 165.97946 -1.6298806e-11)
(106.26916 165.97946 -1.6298806e-11)
(106.58644 165.97946 -1.6298806e-11)
(106.90373 165.97946 -1.6298806e-11)
(107.22102 165.97946 -1.6298806e-11)
(107.53831 165.97946 -1.6298806e-11)
(107.8556 165.97946 -1.6298806e-11)
(108.17288 165.97946 -1.6298806e-11)
(108.49017 165.97946 -1.6298806e-11)
(108.80746 165.97946 -1.6298806e-11)
(105 165.97946 4.7205815)
(105 165.97946 4.4058762)
(105 165.97946 5.0352869)
(105 165.97946 5.6646976)
(105 165.97946 5.3499923)
(105 165.97946 5.9794035)
(105 165.97946 6.6088142)
(105 165.97946 6.2941089)
(105 165.97946 6.9235196)
(105 165.97946 7.5529304)
(105 165.97946 7.238225)
(105 165.97946 7.8676357)
(105.31729 165.97946 8.4970465)
(108.49017 165.97946 8.4970465)
(108.17288 165.97946 8.4970465)
(108.80746 165.97946 8.4970465)
(109.75933 165.97946 -1.6298806e-11)
(110.07661 165.97946 -1.6298806e-11)
(109.44204 165.97946 -1.6298806e-11)
(110.39391 165.97946 -1.6298806e-11)
(109.12475 165.97946 -1.6298806e-11)
(110.7112 165.97946 -1.6298806e-11)
(111.02848 165.97946 -1.6298806e-11)
(111.34577 165.97946 -1.6298806e-11)
(111.66306 165.97946 -1.6298806e-11)
(111.98035 165.97946 -1.6298806e-11)
(112.29764 165.97946 -1.6298806e-11)
(112.93221 165.97946 0.31470543)
(112.93221 165.97946 0.62941086)
(112.93221 165.97946 0.94411629)
(112.93221 165.97946 1.8882326)
(112.93221 165.97946 2.2029381)
(112.93221 165.97946 3.7764652)
(112.93221 165.97946 4.0911708)
(112.29764 165.97946 8.4970465)
(111.98035 165.97946 8.4970465)
(109.12475 165.97946 8.4970465)
(112.93221 165.97946 7.8676357)
(112.93221 165.97946 4.4058762)
(112.93221 166.29858 -1.6298806e-11)
(112.93221 165.97946 1.2588217)
(112.93221 166.61769 -1.6298806e-11)
(112.93221 165.97946 1.5735272)
(112.93221 165.97946 2.8323488)
(112.93221 165.97946 2.5176435)
(112.93221 165.97946 3.1470544)
(112.93221 165.97946 3.4617598)
(112.93221 166.93681 -1.6298806e-11)
(112.93221 167.25592 -1.6298806e-11)
(112.93221 167.57504 -1.6298806e-11)
(112.93221 167.89415 -1.6298806e-11)
(112.93221 168.21327 -1.6298806e-11)
(112.93221 168.53238 -1.6298806e-11)
(112.93221 168.8515 -1.6298806e-11)
(112.93221 169.17061 -1.6298806e-11)
(112.93221 169.48973 -1.6298806e-11)
(112.93221 165.97946 4.7205815)
(112.93221 165.97946 5.3499923)
(112.93221 165.97946 5.0352869)
(112.93221 165.97946 5.6646976)
(112.93221 165.97946 6.2941089)
(112.93221 165.97946 5.9794035)
(112.93221 165.97946 6.9235196)
(112.93221 165.97946 6.6088142)
(112.93221 165.97946 7.238225)
(112.93221 165.97946 7.5529304)
(112.93221 166.29858 8.4970465)
(112.93221 169.48973 8.4970465)
(112.93221 169.17061 8.4970465)
(112.93221 168.53238 8.4970465)
(112.93221 168.21327 8.4970465)
(112.93221 169.80885 -1.6298806e-11)
(112.93221 170.12796 -1.6298806e-11)
(112.93221 170.44708 -1.6298806e-11)
(112.93221 170.76619 -1.6298806e-11)
(112.93221 171.08531 -1.6298806e-11)
(112.93221 171.40442 -1.6298806e-11)
(112.93221 171.72354 -1.6298806e-11)
(112.93221 172.04265 -1.6298806e-11)
(112.93221 172.36177 -1.6298806e-11)
(112.93221 173 0.31470543)
(112.93221 173 0.94411629)
(112.93221 173 1.2588217)
(112.93221 173 1.8882326)
(112.93221 173 2.2029381)
(112.93221 173 3.7764652)
(112.93221 173 4.0911708)
(112.93221 169.80885 8.4970465)
(112.93221 172.36177 8.4970465)
(112.93221 172.04265 8.4970465)
(112.93221 173 7.8676357)
(112.93221 173 4.4058762)
(112.61492 173 -1.6298806e-11)
(112.93221 173 0.62941086)
(112.93221 173 1.5735272)
(112.29764 173 -1.6298806e-11)
(112.93221 173 2.5176435)
(112.93221 173 3.1470544)
(112.93221 173 2.8323488)
(112.93221 173 3.4617598)
(111.98035 173 -1.6298806e-11)
(111.66306 173 -1.6298806e-11)
(111.34577 173 -1.6298806e-11)
(111.02848 173 -1.6298806e-11)
(110.7112 173 -1.6298806e-11)
(110.39391 173 -1.6298806e-11)
(110.07661 173 -1.6298806e-11)
(109.75933 173 -1.6298806e-11)
(109.44204 173 -1.6298806e-11)
(109.12475 173 -1.6298806e-11)
(112.93221 173 4.7205815)
(112.93221 173 5.0352869)
(112.93221 173 5.6646976)
(112.93221 173 5.3499923)
(112.93221 173 5.9794035)
(112.93221 173 6.6088142)
(112.93221 173 6.2941089)
(112.93221 173 6.9235196)
(112.93221 173 7.5529304)
(112.93221 173 7.238225)
(112.61492 173 8.4970465)
(109.44204 173 8.4970465)
(109.75933 173 8.4970465)
(109.12475 173 8.4970465)
(108.17288 173 -1.6298806e-11)
(107.8556 173 -1.6298806e-11)
(108.49017 173 -1.6298806e-11)
(107.53831 173 -1.6298806e-11)
(108.80746 173 -1.6298806e-11)
(107.22102 173 -1.6298806e-11)
(106.90373 173 -1.6298806e-11)
(106.58644 173 -1.6298806e-11)
(106.26916 173 -1.6298806e-11)
(105.95187 173 -1.6298806e-11)
(105.63457 173 -1.6298806e-11)
(105 173 0.31470543)
(105 173 0.62941086)
(105 173 0.94411629)
(105 173 1.8882326)
(105 173 2.2029381)
(105 173 3.7764652)
(105 173 4.0911708)
(105.63457 173 8.4970465)
(105.95187 173 8.4970465)
(108.80746 173 8.4970465)
(105 173 7.8676357)
(105 173 4.4058762)
(105 172.68088 -1.6298806e-11)
(105 173 1.2588217)
(105 172.36177 -1.6298806e-11)
(105 173 1.5735272)
(105 173 2.8323488)
(105 173 2.5176435)
(105 173 3.1470544)
(105 173 3.4617598)
(105 172.04265 -1.6298806e-11)
(105 171.72354 -1.6298806e-11)
(105 171.40442 -1.6298806e-11)
(105 171.08531 -1.6298806e-11)
(105 170.76619 -1.6298806e-11)
(105 170.44708 -1.6298806e-11)
(105 170.12796 -1.6298806e-11)
(105 169.80885 -1.6298806e-11)
(105 169.48973 -1.6298806e-11)
(105 173 4.7205815)
(105 173 5.3499923)
(105 173 5.0352869)
(105 173 5.6646976)
(105 173 6.2941089)
(105 173 5.9794035)
(105 173 6.9235196)
(105 173 6.6088142)
(105 173 7.238225)
(105 173 7.5529304)
(105 172.68088 8.4970465)
(105 169.48973 8.4970465)
(105 169.80885 8.4970465)
(105 170.44708 8.4970465)
(105 170.76619 8.4970465)
(105 169.17061 -1.6298806e-11)
(105 168.8515 -1.6298806e-11)
(105 168.53238 -1.6298806e-11)
(105 168.21327 -1.6298806e-11)
(105 167.89415 -1.6298806e-11)
(105 167.57504 -1.6298806e-11)
(105 167.25592 -1.6298806e-11)
(105 166.93681 -1.6298806e-11)
(105 166.61769 -1.6298806e-11)
(105 169.17061 8.4970465)
(105 166.61769 8.4970465)
(105 166.93681 8.4970465)
(105 167.25592 8.4970465)
(105 167.57504 8.4970465)
(105.63457 165.97946 8.4970465)
(105 168.21327 8.4970465)
(105 167.89415 8.4970465)
(105 168.8515 8.4970465)
(105 168.53238 8.4970465)
(105.95187 165.97946 8.4970465)
(106.26916 165.97946 8.4970465)
(106.58644 165.97946 8.4970465)
(106.90373 165.97946 8.4970465)
(107.22102 165.97946 8.4970465)
(107.53831 165.97946 8.4970465)
(107.8556 165.97946 8.4970465)
(105 170.12796 8.4970465)
(105 171.40442 8.4970465)
(105 171.08531 8.4970465)
(105 172.04265 8.4970465)
(105 171.72354 8.4970465)
(105 172.36177 8.4970465)
(108.49017 173 8.4970465)
(109.44204 165.97946 8.4970465)
(109.75933 165.97946 8.4970465)
(110.07661 165.97946 8.4970465)
(110.39391 165.97946 8.4970465)
(110.7112 165.97946 8.4970465)
(111.02848 165.97946 8.4970465)
(111.34577 165.97946 8.4970465)
(111.66306 165.97946 8.4970465)
(112.93221 167.57504 8.4970465)
(112.93221 167.89415 8.4970465)
(112.29764 173 8.4970465)
(111.98035 173 8.4970465)
(112.93221 171.40442 8.4970465)
(112.93221 171.72354 8.4970465)
(116 208.02054 0.31470543)
(116.3125 208.02054 -4.2295788e-11)
(116 208.02054 0.94411629)
(116 208.02054 0.62941086)
(116.625 208.02054 -4.2295788e-11)
(116 208.02054 1.2588217)
(116 208.02054 1.8882326)
(116 208.02054 1.5735272)
(116 208.02054 2.5176435)
(116 208.02054 2.2029381)
(116 208.02054 2.8323488)
(116 208.02054 3.4617598)
(116 208.02054 3.1470544)
(116 208.02054 3.7764652)
(116 208.02054 4.0911708)
(116.9375 208.02054 -4.2295788e-11)
(117.25 208.02054 -4.2295788e-11)
(117.5625 208.02054 -4.2295788e-11)
(117.875 208.02054 -4.2295788e-11)
(118.1875 208.02054 -4.2295788e-11)
(118.5 208.02054 -4.2295788e-11)
(116 208.02054 4.7205815)
(116 208.02054 4.4058762)
(116 208.02054 5.3499923)
(116 208.02054 5.0352869)
(116 208.02054 5.9794035)
(116 208.02054 5.6646976)
(116 208.02054 6.6088142)
(116 208.02054 6.2941089)
(116 208.02054 6.9235196)
(116 208.02054 7.8676357)
(116 208.02054 7.5529304)
(116.3125 208.02054 8.4970465)
(116 208.02054 7.238225)
(117.5625 208.02054 8.4970465)
(117.25 208.02054 8.4970465)
(118.1875 208.02054 8.4970465)
(117.875 208.02054 8.4970465)
(118.5 208.02054 8.4970465)
(118.8125 208.02054 -4.2295788e-11)
(119.4375 208.02054 -4.2295788e-11)
(119.75 208.02054 -4.2295788e-11)
(120.0625 208.02054 -4.2295788e-11)
(120.375 208.02054 -4.2295788e-11)
(121 208.02054 0.31470543)
(121 208.02054 2.2029381)
(121 208.02054 2.5176435)
(121 208.02054 3.7764652)
(121 208.02054 4.0911708)
(118.8125 208.02054 8.4970465)
(120.0625 208.02054 8.4970465)
(119.75 208.02054 8.4970465)
(121 208.02054 5.9794035)
(121 208.02054 6.2941089)
(121 208.02054 7.8676357)
(120.375 208.02054 8.4970465)
(121 208.02054 4.4058762)
(121 208.33966 -4.2295788e-11)
(121 208.02054 0.94411629)
(121 208.02054 0.62941086)
(121 208.02054 1.2588217)
(121 208.65877 -4.2295788e-11)
(121 208.02054 1.5735272)
(121 208.02054 1.8882326)
(121 208.02054 2.8323488)
(121 208.02054 3.1470544)
(121 208.02054 3.4617598)
(121 208.97789 -4.2295788e-11)
(121 209.297 -4.2295788e-11)
(121 209.61612 -4.2295788e-11)
(121 209.93523 -4.2295788e-11)
(121 210.25435 -4.2295788e-11)
(121 210.57346 -4.2295788e-11)
(121 210.89258 -4.2295788e-11)
(121 211.21169 -4.2295788e-11)
(121 211.53081 -4.2295788e-11)
(121 208.02054 4.7205815)
(121 208.02054 5.3499923)
(121 208.02054 5.0352869)
(121 208.02054 5.6646976)
(121 208.02054 6.9235196)
(121 208.02054 6.6088142)
(121 208.02054 7.238225)
(121 208.02054 7.5529304)
(121 208.33966 8.4970465)
(121 211.53081 8.4970465)
(121 211.21169 8.4970465)
(121 210.57346 8.4970465)
(121 210.25435 8.4970465)
(121 211.84993 -4.2295788e-11)
(121 212.16904 -4.2295788e-11)
(121 212.48816 -4.2295788e-11)
(121 212.80727 -4.2295788e-11)
(121 213.12639 -4.2295788e-11)
(121 213.4455 -4.2295788e-11)
(121 213.76462 -4.2295788e-11)
(121 214.08372 -4.2295788e-11)
(121 214.40285 -4.2295788e-11)
(121 215.04108 0.31470543)
(121 215.04108 0.94411629)
(121 215.04108 1.2588217)
(121 215.04108 1.8882326)
(121 215.04108 2.2029381)
(121 215.04108 3.7764652)
(121 215.04108 4.0911708)
(121 211.84993 8.4970465)
(121 214.40285 8.4970465)
(121 214.08372 8.4970465)
(121 215.04108 7.8676357)
(121 215.04108 4.4058762)
(120.6875 215.04108 -4.2295788e-11)
(121 215.04108 0.62941086)
(120.375 215.04108 -4.2295788e-11)
(121 215.04108 1.5735272)
(121 215.04108 2.5176435)
(121 215.04108 2.8323488)
(121 215.04108 3.4617598)
(121 215.04108 3.1470544)
(120.0625 215.04108 -4.2295788e-11)
(119.75 215.04108 -4.2295788e-11)
(119.4375 215.04108 -4.2295788e-11)
(119.125 215.04108 -4.2295788e-11)
(118.8125 215.04108 -4.2295788e-11)
(118.5 215.04108 -4.2295788e-11)
(121 215.04108 4.7205815)
(121 215.04108 5.3499923)
(121 215.04108 5.0352869)
(121 215.04108 5.9794035)
(121 215.04108 5.6646976)
(121 215.04108 6.6088142)
(121 215.04108 6.2941089)
(121 215.04108 6.9235196)
(121 215.04108 7.5529304)
(120.6875 215.04108 8.4970465)
(121 215.04108 7.238225)
(119.4375 215.04108 8.4970465)
(119.75 215.04108 8.4970465)
(118.8125 215.04108 8.4970465)
(119.125 215.04108 8.4970465)
(118.5 215.04108 8.4970465)
(118.1875 215.04108 -4.2295788e-11)
(117.5625 215.04108 -4.2295788e-11)
(117.25 215.04108 -4.2295788e-11)
(116.9375 215.04108 -4.2295788e-11)
(116.625 215.04108 -4.2295788e-11)
(116 215.04108 0.31470543)
(116 215.04108 2.2029381)
(116 215.04108 2.5176435)
(116 215.04108 3.7764652)
(116 215.04108 4.0911708)
(118.1875 215.04108 8.4970465)
(116.9375 215.04108 8.4970465)
(117.25 215.04108 8.4970465)
(116 215.04108 5.9794035)
(116 215.04108 6.2941089)
(116 215.04108 7.8676357)
(116.625 215.04108 8.4970465)
(116 215.04108 4.4058762)
(116 214.72195 -4.2295788e-11)
(116 215.04108 0.94411629)
(116 215.04108 0.62941086)
(116 215.04108 1.2588217)
(116 214.40285 -4.2295788e-11)
(116 215.04108 1.5735272)
(116 215.04108 1.8882326)
(116 215.04108 2.8323488)
(116 215.04108 3.1470544)
(116 215.04108 3.4617598)
(116 214.08372 -4.2295788e-11)
(116 213.76462 -4.2295788e-11)
(116 213.4455 -4.2295788e-11)
(116 213.12639 -4.2295788e-11)
(116 212.80727 -4.2295788e-11)
(116 212.48816 -4.2295788e-11)
(116 212.16904 -4.2295788e-11)
(116 211.84993 -4.2295788e-11)
(116 211.53081 -4.2295788e-11)
(116 215.04108 4.7205815)
(116 215.04108 5.3499923)
(116 215.04108 5.0352869)
(116 215.04108 5.6646976)
(116 215.04108 6.9235196)
(116 215.04108 6.6088142)
(116 215.04108 7.238225)
(116 215.04108 7.5529304)
(116 214.72195 8.4970465)