/*--------------------------------*- C++ -*----------------------------------*\
  =========                 |
  \\      /  F ield         | OpenFOAM: The Open Source CFD Toolbox
   \\    /   O peration     | Website:  https://openfoam.org
    \\  /    A nd           | Version:  8
     \\/     M anipulation  |
\*---------------------------------------------------------------------------*/
/*   Windows 32 and 64 bit porting by blueCAPE: http://www.bluecape.com.pt   *\
|  Based on Windows porting (2.0.x v4) by Symscape: http://www.symscape.com   |
\*---------------------------------------------------------------------------*/
FoamFile
{
    version     2.0;
    format      ascii;
    class       polyBoundaryMesh;
    location    "constant/air/polyMesh";
    object      boundary;
}
// * * * * * * * * * * * * * * * * * * * * * * * * * * * * * * * * * * * * * //

12
(
    left
    {
        type            patch;
        nFaces          0;
        startFace       15486;
    }
    right
    {
        type            patch;
        nFaces          0;
        startFace       15486;
    }
    back
    {
        type            patch;
        nFaces          0;
        startFace       15486;
    }
    front
    {
        type            patch;
        nFaces          0;
        startFace       15486;
    }
    bottom
    {
        type            wall;
        inGroups        List<word> 1(wall);
        nFaces          147;
        startFace       15486;
    }
    top
    {
        type            patch;
        nFaces          0;
        startFace       15633;
    }
    Building
    {
        type            mappedWall;
        inGroups        List<word> 
2
(
wall
mappedPatch
)
;
        nFaces          761;
        startFace       15633;
        sampleMode      nearestPatchFace;
        sampleRegion    Building;
        samplePatch     buildings_to_air;
    }
    procBoundary9to3
    {
        type            processor;
        inGroups        List<word> 1(processor);
        nFaces          38;
        startFace       16394;
        matchTolerance  0.0001;
        myProcNo        9;
        neighbProcNo    3;
    }
    procBoundary9to6
    {
        type            processor;
        inGroups        List<word> 1(processor);
        nFaces          225;
        startFace       16432;
        matchTolerance  0.0001;
        myProcNo        9;
        neighbProcNo    6;
    }
    procBoundary9to8
    {
        type            processor;
        inGroups        List<word> 1(processor);
        nFaces          15;
        startFace       16657;
        matchTolerance  0.0001;
        myProcNo        9;
        neighbProcNo    8;
    }
    procBoundary9to10
    {
        type            processor;
        inGroups        List<word> 1(processor);
        nFaces          253;
        startFace       16672;
        matchTolerance  0.0001;
        myProcNo        9;
        neighbProcNo    10;
    }
    procBoundary9to11
    {
        type            processor;
        inGroups        List<word> 1(processor);
        nFaces          184;
        startFace       16925;
        matchTolerance  0.0001;
        myProcNo        9;
        neighbProcNo    11;
    }
)

// ************************************************************************* //
