/*--------------------------------*- C++ -*----------------------------------*\
  =========                 |
  \\      /  F ield         | OpenFOAM: The Open Source CFD Toolbox
   \\    /   O peration     | Website:  https://openfoam.org
    \\  /    A nd           | Version:  8
     \\/     M anipulation  |
\*---------------------------------------------------------------------------*/
/*   Windows 32 and 64 bit porting by blueCAPE: http://www.bluecape.com.pt   *\
|  Based on Windows porting (2.0.x v4) by Symscape: http://www.symscape.com   |
\*---------------------------------------------------------------------------*/
FoamFile
{
    version     2.0;
    format      ascii;
    class       scalarListList;
    location    "constant/vegetation";
    object      kcLAIboundary;
}
// * * * * * * * * * * * * * * * * * * * * * * * * * * * * * * * * * * * * * //


5
(

1042
(
0
0
0
1000
0
0
1000
0
0
0
0
0
0
0
0
0
0
0
0
0
1000
1000
1000
0
1000
1000
1000
1000
1000
0
0
0
0
0
0
0
0
0
0
0
1000
1000
0
1000
1000
1000
0
0
0
0
0
0
0
0
1000
0
0
0
1000
1000
0
1000
1000
1000
1000
0
0
0
0
0
1000
1000
1000
1000
0
1000
1000
1000
1000
1000
1000
1000
1000
1000
1000
0
0
0
0
0
0
0
0
0
0
0
0
0
0
0
0
0
0
0
0
0
0
0
0
1000
1000
1000
0
1000
1000
0
0
0
0
0
0
0
0
0
0
0
0
0
0
0
0
0
0
0
0
0
0
0
0
0
0
0
0
0
0
0
0
0
0
0
0
0
0
0
0
0
0
0
0
0
0
0
0
0
0
0
0.0024837525
0
0
0.0012173146
0.001239906
0
1000
1000
1000
1000
1000
1000
1000
1000
0
0
0
0
0
0
0
0
0
0
0
0
0
0
0
0
0
0
0
0
0
0
0
0
0
0
0
0
0
0
0
0
0
0
0
0
0
0
0
0
0
0
0
0
0
0
0
0
0
0
0
0
0
0
0
1000
1000
1000
1000
1000
1000
0
0
0
0
0
0
0
0
0
0
0
0
0
0
0
0
0
0
0
0
0
0
0
0
0
1000
1000
1000
0
1000
1000
1000
1000
1000
0
0
0
0
0
0
0
0
0
0
0
0
1000
1000
1000
1000
1000
1000
1000
0
0
1000
1000
1000
1000
1000
0
1000
0
1000
1000
1000
1000
0
0
0
0
0
0
0
0
0
0
0
0
0
0
0
1000
1000
1000
1000
1000
1000
1000
0
0
0
0
0
0
0
0
0
0
0
0
0
0
0
0
0
0
0
0
0
0
0
0
1000
1000
1000
1000
1000
0
0
0
0
1000
1000
1000
1000
1000
1000
1000
1000
1000
0
0
0
0
0
0
0
0
0
0
0
0
0
1000
1000
1000
1000
0
1000
1000
1000
1000
0
1000
0
1000
0
1000
0
1000
0
0
0
0
0
0
0
0
0
0
0
0
0
0
0
0
0
0
0
0
0
0
0
0
0
0
0
0
0
0
0
0
0
0
0
1000
1000
1000
1000
0
0
0
0
0
0
0
0
0
0
0
0
0
0
0
0
0
0
0
0
1000
1000
1000
0
0
0
0
0
0
1000
1000
1000
1000
1000
0
0
0
0
0
0
0
0
0
0
0
0
0
0
0
0
0
0
0
0
0
0
0
0
0
0
0
0
0
0
0
0
0
0
0
0
0
0
0
0
0
0
0
0
0
0
0
0
0
0
0
0
0
0
0
0
0
0
0
0
0
0
0
0
0
0
0
0
0
0
0
0
0
0
0
0
0
1000
0
0
0
0
0
0
0
0
0
0
0
0
0
0
0
0
0
1000
1000
1000
1000
1000
1000
0
0
0
0
0
0
0
0
0
0
0
0
0
0
0
0
0
0
0
0
0
0
0
0
0
0
0
0
0
0
0
0
0
8.2334222e-05
0
0
0
0
0
0.00056310871
1000
1000
0
0
0
0
0
0
0
0
0
0
0
0
0
0
0
0
0
0
0
0
0
0
0
0
0
0
0
0
0
0
0
0
0
0
0
0
1000
1000
1000
1000
0
0
0
0
0
0
0
0
0
0
0
0
0
0
0
0
0
0
0
0
0
0
0
0
0
0
0
0
0
0
0
0
0
0
0
0
0
0
0
0
0
0
0
0
0
0
0
0
0
0
0
0
0
0
0
0
0
0
0
0
0
0
0
0
0
0
0
0
0
0
0
0
0
0
0
0
0
0
0
0
0
0
0
0
0
0
0
0
0
0
0
0
0
0
0
0
0
0
0
0
0
0
0
0
0
0
0
0
0
0
0
0
0
0
0
0
0
0
0
0
0
0
0
0
0
0
0
0
0
0
0
0
0
0
0
0
0
0
0
0
0
0
0
0
0
0
0
0
0
0
0
0
0
0
0
0
0
1000
1000
0
0
0
0
0
0
0
0
0
0
0
0
0
0
0
0
0
0
0
0
0
0
0
0
0
0
0
0
0
0
0
0
0
0
0
0
0
0
0
0
0
0
0
0
0
0
0
0
0
0
0
0
0
0
0
0
0
0
0
0
0
0
0
0
0
0
0
0
0
0
0
0
0
0
0
0
0
0
0
0
0
1000
1000
0
0
0
0
0
0
0
0
0
0
0
0
0
0
0
0
0
0
0
0
0
0
0
0
0
0
0
0
0
0
0
0
0
0
0
0
1000
1000
0
0
0
0
0
0
0
0
0
0
0
0
0
0
0
0
0
0
0
0
0
0
0
0
0
0
0
0
0
0
0
0
0
0
0
0
0
0
0
0
0
0
0
0
0
0
0
0
0
0
0
0
0
0
0
0
0
0
0
0
0
0
0
0
0
0
0
0
0
0
0
0
0
0
0
0
0
0
0
0
0
0
0
0
0
0
0
0
0
0
0
0
0
0
0
0
0
0
0
0
0
0
0
0
)


1042
(
0
0
0
1000
0
1000
1000
0
0
0
0
1000
0
1000
0
0
1000
0
0
0.17693313
0
1000
1000
1000
1000
0
0
1000
1000
0
0
0
0
0
1000
0
0
0
0
0
1000
0.30687447
1000
1000
1000
1000
1000
1000
0
0
0
0.026337931
0
0
0.32252738
1000
0
1000
1000
1000
1000
1000
1000
1000
1000
0
1000
1000
1000
1000
1000
1000
1000
1000
1000
1000
1000
1000
1000
1000
1000
1000
1000
1000
1000
0
1000
0
1000
1000
1000
1000
1000
1000
0
0
0
0
0
1000
1000
1000
0
0
0
0
0
0
0
1000
1000
1000
1000
1000
1000
0
0
0
1000
1000
1000
0
0
0
0
0
0
0
0
0
0
0
0
0
0
1000
0
1000
0
0
0
0.0010958287
0
0
0
0
0
0
0
0
0
0
0
0
0
0
0
0
0
0
0.0015550711
0.0075050646
0.0043939205
0.004311953
0.0013293032
0.0038873397
0.29580684
0.021853105
0.0077849587
0.33683505
0.16035558
0.0067358569
1000
1000
1000
1000
1000
1000
1000
1000
0
0
0
0
0
0
0
0
0
0
0
0
0
0
0
0
1000
1000
1000
1000
1000
0
0
0
0
0
0
0
0
0
0
0
0
0
0
0
0
0
1000
0
0
0
0
0
0
0
0
0
0
0
0
0
0
1000
0
1000
1000
1000
1000
1000
1000
0
0
0
0
0
1000
1000
1000
1000
0
0
0
0
0
0
0
0
0
0
0
0
0
0
0
0
1000
1000
1000
1000
1000
1000
1000
1000
1000
0
0
0
0
0
0
0
1000
0
1000
1000
0
1000
1000
1000
1000
1000
1000
1000
0
0
1000
1000
1000
1000
1000
1000
1000
1000
1000
1000
1000
1000
0
0
0
0
0
1000
0
0
1000
1000
1000
1000
1000
0
0
1000
1000
1000
1000
1000
1000
1000
0
0
0
0
0
0
0
0
0
0
0
0
0
0
0
0
1000
0
0
1000
0
0
0
0
1000
1000
1000
1000
1000
0
0
0
0
1000
1000
1000
1000
1000
1000
1000
1000
1000
0
0
0
0
0
0
0
0
0
0
0
0
0
1000
1000
1000
1000
0
1000
1000
1000
1000
1000
1000
1000
1000
1000
1000
1000
1000
0
0
0
0
0
0
0
0
0
0
0
0
0
0
0
0
0
0
0
0
0
0
0
0
0
0
0
0
0
0
0
0
0
0
0
1000
1000
1000
1000
1000
1000
0
0
0
0
0
0
0
0
0
0
0
0
0
0
0
0
0
0
1000
1000
1000
0
1000
1000
1000
0
0
1000
1000
1000
1000
1000
0
0
0
0
0
0
0
0
0
0
0
0
0
0
0
0
0
0
0
0
0
0
0
0
0
0
0
0
0
0
0
0
0
0
0
0
0
0
0
0
0
0
0
0
0
0
0
0
0
0
0
0
0
0
0
0
0
0
0
0
0
0
0
0
0
0
0
0
0
0
0
0
0
0
0
0
0
1000
0
0
0
0
0
0
0
0
0
0
0
0
0
0
0
0
0
1000
1000
1000
1000
1000
1000
0
0
0
0
0
0
0
0
0
0
0
0
0
0
0
0
0
0
1000
1000
0
1000
1000
0
0
0
0.0016660674
0.0002484374
0.00099910267
0.00041187438
0.0033385749
0.0036251097
0.0021491991
0.0053996644
0
0
0.0029564364
0.00071213524
0.0052567122
0.072525901
1000
1000
0
0
0
0
0
0
0
0
0
0
0
0
0
0
0
0
0
0
0
0
0
0
0
0
0
0
0
0
0
0
0
0
0
0
0
0
1000
1000
1000
1000
0
0
0
0
0
0
0
0
0
0
0
0
0
0
0
0
0
0
0
0
0
0
0
0
0
0
0
0
0
0
0
0
0
0
0
0
0
0
0
0
0
0
0
0
0
0
0
0
0
0
0
0
0
0
0
0
0
0
0
0
0
0
0
0
0
0
0
0
0
0
0
0
0
0
0
0
0
0
0
0
0
0
0
0
0
0
0
0
0
0
0
0
0
0
0
0
0
0
0
0
0
0
0
0
0
0
0
0
0
0
0
0
0
0
0
0
0
0
0
0
0
0
0
0
0
0
0
0
0
0
0
0
0
0
0
0
0
0
0
0
0
0
0
0
0
0
0
0
0
0
0
0
0
0
0
0
0
1000
1000
0
0
1000
0
0
0
0
0
0
0
0
0
0
0
0
0
0
0
0
0
0
0
0
0
0
0
0
0
0
0
0
0
0
0
0
0
0
0
0
0
0
0
0
0
0
0
0
0
0
0
0
0
0
0
0
0
0
0
0
0
0
0
0
0
0
0
0
0
0
0
0.00018183989
0
0
0
0
0
0
0.0018360007
0.00084645353
0
0
1000
1000
0
0
0
0
0
0
0
0
0
0
0
0
0
0
0
0
0
0
0
0
0
0
0
0
0
0
0
0
0
0
0
0
0
0
1000
0
1000
1000
0
0
0
0
0
0
0
0
0
0
0
0
0
0
0
0
0
0
0
0
0
0
0
0
0
0
0
0
0
0
0
0
0
0
0
0
0
0
0
0
0
0
0
0
0
0
0
0
0
0
0
0
0
0
0
0
0
0
0
0
0
0
0
0
0
0
0
0
0
0
0
0
0
0
0
0
0
0
0
0
0
0
0
0
0
0
0
0
0
0
0
0
0
0
0
0
0
0
0
0
0
0
0
0
)


1042
(
0
0
0
1.1765322
0
1000
0.0094411567
0
1000
1000
1000
1000
1000
1000
1000
1000
1000
0
1000
1.8116909
0.76895234
1000
1000
1000
1000
0.1071733
0.000713149
2.6946016
1000
1000
0
1000
1000
1000
1000
1000
0
0
0.00011634316
0
0.39397474
2.5357884
1000
1000
1000
1000
1000
1000
1000
1000
1000
1.3066042
0.02378805
0.15591946
2.598676
1000
0
1000
1000
1000
1000
1000
1000
1000
1000
1000
1000
1000
1000
1000
1000
1000
1000
1000
1000
1000
1000
1000
1000
1000
1000
1000
1000
1000
1000
1000
1000
1000
1000
1000
1000
1000
1000
1000
1000
1000
1000
1000
1000
1000
1000
1000
1000
1000
1000
1000
1000
1000
1000
1000
1000
1000
1000
1000
1000
1000
1000
1000
1000
1000
1000
1000
1000
1000
1000
1000
1000
1000
1000
1000
1000
1000
1000
1000
1000
1000
1000
1000
0.11313104
0.22263548
0.062206132
0.38032575
0.025578679
0.093867521
0.044723225
0.070367308
0
0
0
0
0
0
0
0
0
0
0
0
0.094905311
0.05763343
0.24631732
0.67916839
0.38931033
0.53085886
0.22041212
0.34815446
0.81736635
0.78387411
0.5628508
0.97236496
0.62794436
0.49279199
1000
1000
1000
1000
1000
1000
1000
1000
0.021743272
0.040472782
0.0047281328
0.01826003
0
0.045168016
0.0013447568
0
0
0
0
0
0
0
0
0
1000
1000
1000
1000
1000
0
0
0
0
0
0
0
0
0
0
0
0
0
0
0
0
1000
1000
1000
1000
1000
1000
1000
0
1000
0
1000
1000
1000
1000
1000
1000
1000
1000
1000
1000
1000
1000
1000
1000
1000
0
1000
1000
1000
1000
1000
1000
1000
1000
1000
1000
1000
1000
1000
1000
1000
0
0
0
0
1000
1000
1000
1000
1000
1000
1000
1000
1000
1000
1000
1000
1000
1000
1000
1000
0
0
1000
0
1000
1000
1000
1000
0
1000
1000
1000
1000
1000
1000
1000
0
0
1000
1000
1000
1000
1000
1000
1000
1000
1000
1000
1000
1000
1000
0
1000
1000
1000
1000
1000
1000
1000
1000
1000
1000
1000
0
0
1000
1000
1000
1000
1000
1000
1000
0
0
1000
1000
1000
0
0
0
0
0
1000
0
0
0
0
1000
1000
1000
1000
1000
1000
0
1000
1000
1000
1000
1000
1000
1000
1000
0
0
1000
1000
1000
1000
1000
1000
1000
1000
1000
1000
0
0
0
1000
1000
1000
1000
1000
1000
0
0
0
0
1000
1000
1000
1000
0
1000
1000
1000
1000
1000
1000
1000
1000
1000
1000
1000
1000
1000
1000
1000
1000
0
0
0
0
0
1000
1000
0
1000
0
1000
1000
0
0
1000
0
0
0
0
0
0
1000
1000
1000
1000
0
0
0
1000
0
1000
1000
1000
1000
1000
1000
1000
0
0
0
0
0
0
0
0
0
0
0
0
0
0
0
0
0
0
1000
1000
1000
1000
1000
1000
1000
1000
0
1000
1000
1000
1000
1000
1000
1000
1000
1000
0
0
0
0
0
1000
1000
1000
1000
0
0
0
0
0
0
0
0
0.0028892267
0
0
1000
0
1000
1000
0
0
0
0
0
0
0
0
0
0
1000
1000
1000
0
0
1000
1000
1000
1000
0
0
1000
1000
0
0
1000
0
1000
1000
1000
0
0
0
0
0
0
0
0
0
0
0
0
0
0
0
0
0
0
0
1000
0
0
1000
0
1000
0
0
0
0
0
1000
1000
0
0
1000
0
0
1000
1000
1000
1000
1000
1000
0
1000
0
1000
1000
1000
1000
0
0
0
0
0
0
0
0
0
0
0
1000
1000
1000
1000
1000
1000
0
0
0.092965513
0.0097946634
0.056812498
0.041589712
0.19753681
0.25217307
0.14076349
0.334681
0.045492207
0.05992946
0.26479524
0.15294777
0.37759143
0.48078448
1000
1000
0.029637274
0.01218357
0
0
0
0
0
0
1000
1000
0
0
0
0
0
0
0
0
0
0
0.0069012989
0.0070551406
0.015899233
0.004639557
0.0046425568
0.00079520455
0.0025526724
0.0027134682
0
0
0
0
0
0
0.0011141355
0
1000
1000
1000
1000
0
0
0
0
0
0
0
0
0
0
0
0
0
0
1000
1000
0
1000
1000
1000
1000
1000
1000
0
0
0
0
0
0
0
0
0
0
0
0
0
0
0
0
0
0
0
0
0
0
0
0
0
0
0
0
0
0
0
0
0
0
0
0
0
0
0
0
0
0
0
0
0
0
0
0
0
0
0
0
0
0
0
0
0
0
0
0
0
0
0
0
0
0
0
0
0
0
0
0
0
0
0
0
0
1000
0
1000
1000
0
0
0
0
0
0
0
0
0
0
0
0
0
0
0
0
0
0
0
0
0
0
0
0
0
0
1000
1000
0
0
0
0
0
0
0
0
0
0
0
0
0
0
0
0
0
0
0
0
0
0
0
0
0
1000
1000
1000
1000
1000
0
0
0
0
0
0
0
0
0
0
0
0
0
0
1000
1000
1000
0
1000
0
0
0
0
0
0
0
0
0
0
0
0
0
0
0
0
0
0
0
0
0
0
0
0
0
0
0
0
0
0
0
0
0
0
0
0
0
0
0
0
0
0
0
0
0
0
0
0.0072705038
0.021374288
0.016642736
0.0055579459
0.029657054
0.042099718
0.024090968
0.013439445
0.164304
0.073268293
0.069389801
0.032215429
1000
1000
0
0
0
0
0
0
0
0
0.01574407
0.0002236015
0
0.0024925932
0
0
0
0
1000
1000
0
0
0
0
0
0
0
0
0.0045466202
0.0022989701
0
0.0018332562
0
0.00038100693
0
0
1000
1000
1000
1000
0
0
0
0
0
0
0
0
0
0
0
0
1000
1000
1000
0
1000
1000
1000
1000
0
0
0
0
0
0
0
0
0
0
0
0
0
0
0
0
0
0
0
0
0
0
0
0
0
0
0
0
0
0
0
0
0
0
0
0
0
0
0
0
0
0
0
0
0
0
0
0
1000
1000
0
0
0
0
0
0
0
0
0
0
0
0
0
0
0
0
0
0
0
0
1000
1000
1000
1000
1000
1000
0
0
0
0
0
0
0
0
)


1042
(
0
0
1000
2.5736653
1000
0.079810308
1.7932884
1000
1000
0
1000
0.89691626
1000
1000
1000
1000
1000
1000
1000
1.4199718
1.2844916
1000
2.7857369
1000
1000
1.1032927
0.60426966
3.0960808
3.002448
1000
0
1000
1000
1000
1000
1000
0.026308657
0.016069393
0.36449172
0.19463839
2.4979285
2.7160507
0.19016023
2.7003584
1.8401542
2.8554088
1000
1000
1000
1000
1000
0.85640349
0.57755263
0.75525055
2.9922818
0.9976831
0
1000
1000
1000
1000
1000
1000
1000
1000
1000
1000
1000
1000
1000
1000
1000
1000
1000
1000
1000
1000
1000
1000
1000
1000
1000
1000
1000
1000
1000
1000
1000
1000
1000
1000
1000
1000
1000
1000
1000
1000
1000
1000
1000
1000
1000
1000
1000
1000
1000
1000
1000
1000
1000
1000
1000
1000
1000
1000
1000
1000
1000
1000
1000
1000
1000
1000
1000
1000
1000
1000
1000
1000
1000
1000
1000
1000
1000
1000
1000
1000
1000
0.13939972
0.19820161
0.12241469
0.23252155
0.0874159
0.16346462
0.1051558
0.1410383
0.019042512
0.058916387
0.007290492
0.07108362
0
0.00053338019
0
0.0018638443
0.0011747054
0.043802529
0.00076664341
0.025744401
0.13437944
0.11710306
0.17516343
0.30305714
0.21795525
0.2670772
0.16528831
0.20440694
0.4196117
0.36594506
0.27348103
0.48863637
0.31796106
0.25066712
1000
1000
1000
1000
1000
1000
1000
1000
0.08202511
0.099751835
0.069151576
0.11051731
0.052433676
0.12218434
0.06381155
0.049231715
0.015957988
0.0042051694
0.030504158
0.099359573
0.04163403
0.081516169
0.027380108
0.038471212
1000
1000
1000
1000
1000
0
0
0
0.0045194378
0.00043719598
0.0032874995
0
0.00017735139
0.00082760889
0.00037989589
0.0012482727
0.0054657354
0.00099403014
0.0060936876
0.00094027609
0.00072085402
1000
1000
1000
1000
1000
1000
1000
0.00023857873
1000
0
1000
1000
1000
1000
1000
1000
1000
1000
1000
1000
1000
1000
1000
1000
1000
0
1000
1000
1000
1000
1000
1000
1000
1000
1000
1000
1000
1000
1000
1000
1000
1000
1000
1000
1000
1000
1000
1000
1000
1000
1000
1000
1000
1000
1000
1000
1000
1000
1000
1000
1000
1000
1000
1000
1000
1000
1000
1000
1000
1000
1000
1000
1000
1000
1000
1000
1000
1000
0
1000
1000
1000
1000
1000
1000
1000
1000
1000
1000
1000
1000
1000
1000
1000
1000
1000
1000
1000
1000
1000
1000
1000
1000
1000
1000
1000
1000
1000
1000
1000
1000
1000
1000
1000
1000
1000
1000
1000
1000
1000
1000
1000
1000
1000
1000
1000
1000
1000
1000
1000
1000
1000
1000
1000
1000
1000
1000
1000
1000
1000
1000
1000
1000
1000
1000
1000
1000
1000
1000
1000
1000
1000
1000
1000
1000
1000
1000
1000
1000
1000
1000
1000
1000
1000
0
1000
1000
1000
1000
1000
1000
1000
0
1000
1000
1000
1000
1000
1000
1000
1000
1000
1000
1000
1000
1000
1000
1000
1000
1000
1000
1000
1000
1000
1000
1000
1000
1000
0
1000
1000
1000
1000
1000
1000
1000
1000
1000
1000
0
1000
1000
1000
1000
1000
1000
1000
1000
1000
1000
1000
1000
1000
1000
1000
1000
0
0
0
0
0
0
0
0
0
0
0
0
0
0
1000
1000
1000
1000
1000
1000
1000
1000
1000
1000
1000
1000
1000
1000
1000
1000
1000
1000
1000
1000
1000
1000
0
1000
1000
1000
1000
1000
1000
1000
1000
0
0
0
0
0
0
0
0
0.033950233
0
0.016197573
1000
1000
1000
1000
0
0.0084343318
0
1000
1000
0
0
0
0
1000
1000
1000
1000
0
0
1000
1000
1000
1000
1000
1000
1000
1000
1000
1000
1000
1000
1000
1000
1000
0
0
0
0
0
0
1000
0
0
0
0
0
0
0
0
1000
1000
1000
0
1000
0
0
1000
0
1000
0
1000
0
1000
0
1000
1000
0
0
1000
0
0
1000
1000
1000
1000
1000
1000
1000
1000
1000
1000
1000
1000
1000
0
0
1000
0
1000
0
0
0
1000
1000
1000
1000
1000
1000
1000
1000
1000
0
0
0.11094184
0.070637281
0.095597964
0.085417952
0.15734369
0.17030813
0.12284652
0.20797826
0.10234095
0.11931031
0.17481745
0.13806776
0.21466705
0.25932583
1000
1000
0.085192046
0.067644266
0.040724615
0.05104892
0
0.0077702641
0.030070331
0.019086116
1000
1000
0
0
1000
1000
0
0
1000
1000
0
0
0.040382643
0.047552093
0.061883546
0.03032264
0.025931949
0.0087546706
0.018905401
0.015529981
0
0
0
0
0
0
0.0063963216
0
1000
1000
1000
1000
0
0
0
0
0
9.1488752e-05
0.00019798976
0.00031193984
1000
1000
1000
1000
1000
1000
1000
1000
1000
1000
1000
1000
1000
1000
1000
0
0
0
0
0
0
0
0
0
0
0
0
0
0
0
0
0
0
0
0
0
0
0
0
0
0
0
0
0
0
0
0
0
0
0
0
1000
1000
0
1000
0
0
0
0
0
0
0
0
0
0
0
0
0
0
0
0
0
0
0
0
0
0
0
0
0
0
0
0
0
0
0
0
0
0
0
0
0
1000
0
1000
1000
0
0
0
0
0
0
0
0
0
0
0
0
0
0
0
0
0
0
0
0
0
0
0
0
1000
1000
1000
1000
0
0
0
0
0
0
0
0
0
0
0
0
0
0
0
0
0
0
0
0
0
0
0
0
0
1000
1000
1000
1000
1000
1000
1000
0
0
0
0
0
0
0
0
0
0
1000
1000
1000
1000
1000
0
1000
0
0
0
0
0
0
0
0
0
0
0
0
0
0
0
0
0
0
0
0
0
0
0
0
0
0
0
0
0
0
0
0
0
0
0
0
0
0
0
1000
1000
1000
1000
1000
1000
1000
0
0.055453287
0.079879015
0.062911576
0.03964302
0.08087226
0.097545189
0.071686873
0.054141921
0.13417406
0.10561126
0.11425218
0.087268019
1000
1000
0
0
0
0
0.017854674
0.0070306869
0
0.0030699967
0.063966677
0.048345876
0.032548964
0.042243555
0.028345203
0.038509185
0.023288806
0.012958343
1000
1000
0
0
0
0
0
0
0
0
0.035199791
0.022769557
0.014226112
0.026809403
0.0016958532
0.011603859
0.0037118967
0
1000
1000
1000
1000
0
0
0
0
0
0
0
0
0
0
0
0
1000
1000
1000
1000
1000
1000
1000
1000
0
0
0
0
0
0
0
0
0
0
0
0
0
0
0
0
0
0
0
0
0
0
0
0
0
0
0
0
0
0
0
0
0
0
0
0
0
0
0
0
0
0
1000
1000
1000
1000
1000
1000
1000
1000
0
0
0
0
0
0
0
0
0
0
0
0
0
0
0
0
0
0
0
0
1000
1000
1000
1000
1000
1000
0
0
0
0
0
0
0
0
)


1042
(
0
0
1000
2.4489712
0.47872847
1.2002693
1.9862448
1000
1000
0.1110338
1.4657054
1.7795802
1000
1000
1000
1000
0.15541916
0.042159018
1000
1000
0.32561976
3.6046844
4.0821782
2.9873155
3.3573935
0.35121164
0.22708827
1000
4.56614
1000
0.0037882235
1000
1.7184676
2.2732902
2.6000655
0.05843975
0.04748148
0.023766302
0.14669876
0.09998893
2.5272667
1000
1.0075301
3.5798532
2.8553892
3.8919019
2.7577962
2.4362913
1.8727471
1000
1000
0.14708327
0.19155401
0.23566921
1000
2.3500045
0
1.0692647
3.4828913
3.1010143
2.6735498
2.9739915
3.6108615
4.1061243
4.3238069
2.0240302
1.9950693
2.2897565
2.5965645
2.3661242
3.0054849
3.3554191
2.692345
3.2281532
2.3845205
2.7505385
2.6152514
2.8470712
3.1366555
3.7623102
3.5925371
3.9280673
3.7416415
3.8838636
1000
1.5814093
2.066852
1.497352
1.8348384
2.1745885
2.307543
2.5195941
1.9452993
2.4427111
1000
1.7294418
1000
1.5077701
1000
0.40266352
1000
0.68928753
1000
1000
1000
1000
1000
1000
1000
2.6682012
2.965757
2.5912658
2.3602492
3.5216842
3.0941692
1000
1000
1000
1.7741341
1.9015207
2.2833205
1000
1000
1000
1000
1000
1000
1000
1000
1000
1000
1000
1000
1000
1000
1000
1000
1000
1000
1000
1000
1000
1000
1000
1000
1000
1000
1000
1000
1000
1000
1000
1000
1000
1000
1000
1000
1000
1000
1000
1000
1000
1000
1000
1000
1000
1000
1000
1000
1000
1000
1000
2.8772134
2.7691379
2.4613248
2.5384248
3.2687115
3.4031142
4.0754147
4.4458112
1000
1000
1000
1000
1000
1000
1000
1000
1000
1000
1000
1000
1000
1000
1000
1000
1.5939474
1.5563943
1.7415457
2.1978644
2.069857
1000
1000
1000
1000
1000
1000
1000
1000
1000
1000
1000
1000
1000
1000
1000
1000
1000
1000
1000
1000
1000
1000
1000
1000
1000
1000
1000
1000
1000
1000
1000
1000
1000
1000
2.7452621
2.8377855
2.514227
2.437294
3.3613275
3.2239234
1000
1000
1000
1000
1000
1.6554444
2.031286
2.1591513
1000
1000
1000
1000
1000
1000
1000
1000
1000
1000
1000
1000
1000
1000
1000
1000
1000
2.5567434
2.7899999
2.4821147
2.2281802
3.2988679
2.5953806
3.3675455
2.9046248
3.5379413
1.1848424
0.088155306
0.79265391
0
0
0.026536364
0
1.6389066
1.262922
1.7388029
2.1075579
0
1.6929644
2.4211639
1.3792104
0.1641978
0.10132418
0.086868963
0.36253299
1000
1000
2.3727084
2.1863016
2.524916
1.9482164
2.1802291
1.4520472
1.7027124
1.9330865
2.3639887
2.6662952
3.149917
2.5139908
1000
1000
1000
1000
1000
1.4487008
0.1105742
0.91758714
0.25105409
1.4730704
1.0807343
1.6903503
0.75078577
0
0
1.8776785
1.2480045
1.1701354
0.13493942
1.5674777
2.3399437
0.071693455
1000
1000
1000
1000
1000
1000
1000
1000
1000
1000
1000
1000
0
0
0
0
0
0
0
0
0.049042948
0
0.1319475
0
3.0302013
3.4656494
2.7685714
2.6830953
3.7580497
1000
1000
1000
1.3901273
1.9579624
1.8273511
2.2253281
2.5086361
1.5648051
0.93337209
0.48497997
0.25969071
0.13290097
1000
1000
1000
1000
1000
1000
1000
1000
1000
1000
1000
1000
1000
0.03858096
0
0.16017527
0.10671915
0
1.6604176
1.3912841
0.897454
0.51865315
0
0
0
0.05184984
0.61835433
1.0036946
0.12135639
0.17610705
0.17156805
0.13501758
1.0699928
0.52623748
0
0
0
0
0
0
0.073534714
0
0
0
0.1494866
0.38097485
0
0
0
0
1000
1000
1000
1000
1000
1000
1000
1000
1000
1000
1000
1000
1000
1000
1000
2.6360936
2.7106786
3.2177478
3.0382199
1.5149432
1.9813718
0
0
0
0
0
0
0
0
0
0
1000
1000
1000
1000
1000
1000
1000
1000
2.9700149
2.8909351
2.6866682
1000
1.2425658
1.0750039
0.67929793
0.15984859
0
0.72420477
0.27594011
0.098748986
1.8326104
2.0999697
1000
1000
1000
1000
1000
1000
1000
0
0
0
0.098389588
0
0.0082392609
0
0
0
0
0
0
0
1000
1000
1000
1000
1000
1000
1000
1000
1000
1000
1000
1000
1000
1000
1000
1000
1000
1000
1000
1000
1000
1000
1000
1000
1000
1000
1000
1000
1000
1000
1000
1000
1000
1000
1000
1000
1000
1000
0
0
0
0
1000
0
1000
1000
0
0
0
1000
1000
1000
1000
1000
1000
1000
1000
2.4099737
1000
1000
1000
1000
1000
1000
1000
1000
1000
1000
1000
1000
1000
1000
1000
1000
1000
0.91320519
0.45827263
2.2146203
1.9393638
1.3472485
0.038572739
1000
1000
1000
1000
1000
1000
1000
1000
1000
1000
1000
1000
1000
1000
1000
1000
1000
1000
0.24639494
0.14350407
0.068844028
0.019817342
0.068298447
0
1000
1000
1000
1000
1000
1000
1000
1000
1000
1000
1000
1000
1000
1000
1000
1000
3.1827937
2.8947451
1000
1000
1000
1000
1000
1000
1000
1000
1000
1000
1000
1000
1000
1000
1000
1000
1000
1000
1000
1000
1000
1000
1000
1000
1000
1000
1000
1000
1000
1000
1000
1000
1000
1000
1000
1000
2.0922837
2.3341074
1.1590616
0.71065334
1000
1000
1000
1000
1000
1000
1000
1000
1000
1000
1000
1000
1000
1000
1000
1000
1000
1000
1000
1000
1000
1000
1000
1000
1000
1000
1000
1000
1000
1000
1000
1000
1000
1000
1000
1000
1000
1000
1000
1000
1000
1000
1000
1000
1000
1000
1000
1000
1000
1000
1000
0
1000
0
1000
1000
1000
1000
1000
1000
1000
1000
1000
1000
1000
1000
1000
1000
1000
1000
1000
1000
1000
1000
1000
1000
1000
1000
1000
1000
1000
1000
1000
1000
1000
1000
1000
1000
1000
1000
1000
1000
1000
1000
1000
1000
1000
1000
1000
1000
1000
0
0.27950836
0.69019426
1000
1000
1000
1000
1000
1000
1000
1000
1000
1000
1000
1000
1000
1000
1000
1000
1000
1000
1000
1000
1000
1000
1000
1000
0
0
0.011764613
0
1000
1000
1000
1000
1000
1000
1000
1000
1000
1000
1000
1000
1000
1000
1000
1000
1000
1000
1000
1000
1000
1000
1000
1000
1000
2.4027074
2.3280039
1000
1000
1.8617745
1000
1000
1000
1000
1000
1000
1000
1000
0
0
1000
1000
1000
1000
1000
1000
1000
1000
1000
0
0
0
0
0
0
0
0
0
0
1000
0
1000
1000
1000
1000
1000
1000
0
0
0
0
0
0
0
0
0
1000
1000
1000
1000
1000
1000
1000
1000
1000
1000
1000
1000
1000
1000
1000
1000
1000
1000
1000
1000
1000
1000
1000
1000
1000
1000
1000
1000
1000
1000
1000
1000
2.745339
2.5846179
1000
1000
1000
1000
1000
1000
1000
1000
1000
1000
1000
1000
1000
1000
1000
1000
1000
1000
1000
1000
1000
1000
1000
1000
1000
1000
1000
1000
1000
1000
1000
1000
1000
1000
0.86341036
0.45173797
0.16181901
1.6774841
1000
1000
1000
1000
1000
1000
1000
1000
1000
1000
1000
1000
1000
1000
1000
1000
1000
1000
1000
1000
1000
1000
1000
1000
1000
1000
1000
1000
1000
1000
1000
1000
1000
1000
1000
1000
1000
1000
1000
1000
1000
1000
1000
1000
1000
1000
1000
1000
1000
1000
1000
1000
1000
1000
1000
1000
1000
1000
1000
1000
1000
1000
1000
1000
1000
1000
0
0
0.036598374
0
1000
1000
1000
1000
1000
1000
1000
1000
1000
1000
1000
1000
1000
1000
1000
1000
0
0
0
0
1000
1000
1000
1000
1000
1000
0
0
0
1000
1000
1000
1000
1000
)

)


// ************************************************************************* //
