/*--------------------------------*- C++ -*----------------------------------*\
  =========                 |
  \\      /  F ield         | OpenFOAM: The Open Source CFD Toolbox
   \\    /   O peration     | Website:  https://openfoam.org
    \\  /    A nd           | Version:  8
     \\/     M anipulation  |
\*---------------------------------------------------------------------------*/
/*   Windows 32 and 64 bit porting by blueCAPE: http://www.bluecape.com.pt   *\
|  Based on Windows porting (2.0.x v4) by Symscape: http://www.symscape.com   |
\*---------------------------------------------------------------------------*/
FoamFile
{
    version     2.0;
    format      ascii;
    class       scalarListList;
    location    "constant/vegetation";
    object      solarLoadFineFaces;
}
// * * * * * * * * * * * * * * * * * * * * * * * * * * * * * * * * * * * * * //


5
(

1243
(
717.08284
0
717.08284
0
0
0
717.08284
0
0
0
717.08284
0
0
0
717.08284
717.08284
717.08284
717.08284
717.08284
717.08284
0
717.08284
717.08284
0
0
0
0
0
717.08284
0
0
717.08284
0
717.08284
0
0
0
0
0
0
0
0
0
0
0
717.08284
717.08284
0
717.08284
717.08284
0
0
0
0
0
0
0
0
0
0
0
0
0
0
0
0
0
0
0
0
0
0
0
0
0
0
717.08284
0
0
0
0
0
0
0
0
0
0
0
0
0
0
0
0
0
0
0
0
0
0
0
0
717.08284
717.08284
717.08284
0
0
0
717.08284
717.08284
717.08284
717.08284
717.08284
0
0
0
717.08284
717.08284
717.08284
0
0
0
0
0
0
0
717.08284
717.08284
717.08284
0
0
0
717.08284
717.08284
0
0
0
0
0
717.08284
717.08284
717.08284
717.08284
717.08284
717.08284
717.08284
717.08284
717.08284
717.08284
0
0
0
717.08284
717.08284
717.08284
717.08284
717.08284
717.08284
717.08284
717.08284
717.08284
0
0
0
0
0
0
0
0
0
0
0
717.08284
717.08284
717.08284
717.08284
0
717.08284
717.08284
717.08284
0
717.08284
717.08284
717.08284
717.08284
0
0
717.08284
717.08284
717.08284
717.08284
0
0
0
0
0
0
0
0
0
0
0
0
717.08284
717.08284
717.08284
717.08284
0
0
717.08284
717.08284
717.08284
717.08284
0
0
0
0
0
0
0
0
0
0
0
0
0
0
0
0
0
0
0
0
0
0
0
0
0
0
717.08284
0
0
0
0
0
0
0
0
0
0
717.08284
717.08284
717.08284
717.08284
717.08284
717.08284
0
717.08284
717.08284
0
0
0
0
0
0
0
0
0
0
0
0
0
0
0
0
0
0
0
0
0
0
0
0
0
0
0
0
0
0
0
0
0
0
0
0
0
0
0
0
0
0
0
0
0
0
0
0
0
0
0
0
0
0
0
0
0
0
0
0
0
0
0
0
0
0
0
0
0
0
0
0
0
0
0
0
0
0
0
0
0
222.06862
222.06862
222.06862
222.06862
222.06862
222.06862
222.06862
222.06862
222.06862
222.06862
222.06862
222.06862
222.06862
222.06862
222.06862
222.06862
222.06862
222.06862
222.06862
222.06862
222.06862
222.06862
222.06862
222.06862
222.06862
222.06862
222.06862
222.06862
222.06862
222.06862
222.06862
221.36367
222.06862
222.06862
0
0
0
0
0
0
0
0
222.06862
222.06862
222.06862
222.06862
222.06862
222.06862
222.06862
222.06862
222.06862
222.06862
222.06862
222.06862
222.06862
222.06862
222.06862
222.06862
0
0
0
0
0
222.06862
222.06862
222.06862
222.06862
222.06862
222.06862
222.06862
222.06862
222.06862
222.06862
222.06862
222.06862
222.06862
222.06862
222.06862
222.06862
0
0
0
0
0
0
0
222.06862
0
222.06862
0
0
0
0
0
0
0
0
0
0
0
0
0
0
0
222.06862
0
0
0
0
0
0
0
0
0
0
0
0
0
0
0
0
0
0
0
0
0
0
0
0
0
0
0
0
0
0
0
0
0
0
0
0
0
0
0
0
0
0
0
0
0
0
0
0
0
0
0
0
0
0
0
0
0
0
0
0
0
0
0
0
0
0
0
0
0
0
0
0
0
0
0
0
0
0
0
0
0
0
0
0
0
0
0
0
0
0
0
0
0
0
0
0
0
0
0
0
0
0
0
0
0
0
0
0
0
0
0
0
0
0
0
0
0
0
0
0
0
0
0
0
0
0
0
0
0
0
0
0
0
0
0
0
0
0
0
0
0
0
0
0
0
0
0
0
0
0
0
0
0
0
0
0
0
0
0
0
0
0
0
0
0
0
0
0
0
0
0
0
0
0
0
0
0
0
0
0
0
0
0
0
0
0
0
0
0
0
0
0
0
0
0
0
0
0
0
0
0
0
0
0
0
222.06862
0
0
0
0
222.06862
222.06862
222.06862
222.06862
0
0
0
0
0
0
0
0
0
0
0
0
0
0
0
0
0
0
0
0
0
0
0
0
0
0
0
0
0
0
0
0
0
0
0
0
0
0
0
222.06862
222.06862
222.06862
0
0
0
0
222.06862
222.06862
222.06862
0
0
222.06862
222.06862
222.06862
222.06862
0
0
0
0
222.06862
222.06862
0
0
0
0
0
0
0
0
0
0
0
0
0
0
0
0
0
0
0
0
0
0
0
0
0
0
222.06862
222.06862
222.06862
222.06862
0
0
0
0
0
222.06862
222.06862
0
222.06862
0
222.06862
0
222.06862
0
222.06862
0
0
222.06862
222.06862
0
222.06862
222.06862
0
0
0
0
0
0
0
0
0
0
0
0
0
0
0
0
222.06862
0
222.06862
222.06862
222.06862
0
0
0
0
0
0
0
0
0
222.06862
222.06862
222.06862
222.06862
222.06862
222.06862
222.06862
222.06862
222.06862
222.06862
222.06862
222.06862
222.06862
222.06862
222.06862
222.06862
0
0
222.06862
222.06862
222.06862
222.06862
222.06862
222.06862
222.06862
222.06862
0
0
222.06862
222.06862
0
0
222.06862
222.06862
0
0
222.06862
222.06862
222.06862
222.06862
222.06862
222.06862
222.06862
222.06862
222.06862
222.06862
222.06862
222.06862
222.06862
222.06862
222.06862
222.06862
222.06862
222.06862
0
0
0
0
222.06862
222.06862
222.06862
222.06862
222.06862
222.06862
222.06862
222.06862
0
0
0
0
0
0
0
0
0
0
0
0
0
0
0
0
0
222.06862
222.06862
222.06862
222.06862
222.06862
222.06862
222.06862
222.06862
222.06862
222.06862
222.06862
222.06862
222.06862
222.06862
222.06862
222.06862
222.06862
222.06862
222.06862
222.06862
222.06862
222.06862
222.06862
222.06862
222.06862
222.06862
222.06862
222.06862
222.06862
222.06862
222.06862
222.06862
222.06862
222.06862
0
0
0
0
0
222.06862
222.06862
222.06862
222.06862
222.06862
222.06862
222.06862
222.06862
222.06862
222.06862
222.06862
222.06862
222.06862
222.06862
222.06862
222.06862
222.06862
222.06862
222.06862
222.06862
222.06862
222.06862
222.06862
222.06862
222.06862
222.06862
222.06862
222.06862
222.06862
222.06862
222.06862
222.06862
222.06862
222.06862
222.06862
222.06862
0
0
0
0
222.06862
222.06862
222.06862
222.06862
222.06862
222.06862
222.06862
222.06862
222.06862
222.06862
222.06862
222.06862
222.06862
222.06862
222.06862
222.06862
222.06862
222.06862
222.06862
222.06862
222.06862
222.06862
222.06862
222.06862
0
0
0
0
222.06862
222.06862
222.06862
222.06862
222.06862
222.06862
222.06862
222.06862
222.06862
222.06862
222.06862
222.06862
222.06862
222.06862
222.06862
222.06862
222.06862
222.06862
222.06862
222.06862
222.06862
222.06862
222.06862
222.06862
0
0
0
0
0
0
0
0
222.06862
222.06862
222.06862
222.06862
222.06862
222.06862
222.06862
222.06862
222.06862
222.06862
0
0
0
0
0
222.06862
0
0
0
0
0
0
0
0
0
0
0
222.06862
222.06862
222.06862
222.06862
222.06862
222.06862
222.06862
222.06862
222.06862
222.06862
0
0
0
0
0
0
0
222.06862
222.06862
222.06862
222.06862
222.06862
222.06862
222.06862
222.06862
222.06862
222.06862
222.06862
222.06862
0
0
0
0
0
0
0
0
222.06862
222.06862
222.06862
222.06862
222.06862
222.06862
222.06862
222.06862
222.06862
222.06862
222.06862
222.06862
0
0
222.06862
222.06862
222.06862
222.06862
222.06862
222.06862
222.06862
222.06862
222.06862
222.06862
222.06862
222.06862
222.06862
222.06862
222.06862
222.06862
0
0
222.06862
222.06862
222.06862
222.06862
222.06862
222.06862
222.06862
222.06862
222.06862
222.06862
222.06862
222.06862
222.06862
222.06862
222.06862
222.06862
0
0
0
0
222.06862
222.06862
222.06862
222.06862
222.06862
222.06862
222.06862
222.06862
222.06862
222.06862
222.06862
222.06862
0
0
0
0
0
0
0
0
0
0
222.06862
222.06862
222.06862
222.06862
222.06862
222.06862
222.06862
222.06862
222.06862
222.06862
222.06862
222.06862
222.06862
222.06862
222.06862
222.06862
222.06862
222.06862
222.06862
222.06862
222.06862
222.06862
222.06862
222.06862
222.06862
222.06862
222.06862
222.06862
222.06862
222.06862
222.06862
222.06862
222.06862
222.06862
222.06862
222.06862
222.06862
222.06862
222.06862
222.06862
0
0
0
0
0
0
0
0
222.06862
222.06862
222.06862
222.06862
222.06862
222.06862
222.06862
222.06862
222.06862
222.06862
222.06862
222.06862
222.06862
222.06862
222.06862
222.06862
0
0
0
0
0
0
0
0
0
0
0
0
0
0
0
0
0
0
)


1243
(
585.76158
585.76158
585.76158
0
0
0
585.76158
0
0
0
585.76158
0
0
0
585.76158
0
0
585.76158
0
0
0
0
0
0
0
0
0
0
0
0
0
585.76158
585.76158
585.76158
0
0
0
0
585.76158
585.76158
585.76158
585.76158
0
0
0
0
0
585.76158
585.76158
585.76158
0
0
0
0
0
0
0
0
0
585.76158
585.76158
585.76158
585.76158
0
0
0
585.76158
0
0
0
0
0
0
0
0
585.76158
585.76158
0
0
0
0
0
0
0
0
0
0
0
0
0
0
0
0
0
0
0
0
0
0
0
0
585.76158
585.76158
0
585.76158
585.76158
585.76158
0
0
585.76158
0
585.76158
0
585.76158
585.76158
0
585.76158
585.76158
0
0
0
0
0
0
0
585.76158
0
0
0
0
0
585.76158
585.76158
0
0
0
0
0
0
0
0
0
0
0
585.76158
585.76158
585.76158
0
0
0
0
0
0
0
0
0
0
0
0
0
0
0
0
0
0
0
0
0
0
0
585.76158
585.76158
585.76158
585.76158
585.76158
585.76158
585.76158
585.76158
585.76158
585.76158
585.76158
585.76158
585.76158
585.76158
585.76158
585.76158
585.76158
585.76158
585.76158
585.76158
585.76158
0
0
0
0
0
0
0
0
0
0
585.76158
585.76158
585.76158
585.76158
585.76158
585.76158
585.76158
585.76158
585.76158
585.76158
585.76158
585.76158
0
0
0
0
0
0
0
424.27655
585.76158
0
0
0
0
0
0
0
0
0
0
0
0
0
0
0
585.76158
585.76158
585.76158
0
0
0
0
0
0
0
0
0
0
0
0
0
0
0
585.76158
585.76158
585.76158
0
0
0
0
0
0
0
0
0
0
0
0
0
0
0
0
0
0
0
0
0
0
0
0
0
0
0
0
0
0
0
0
0
0
0
0
0
0
0
0
0
0
0
0
0
0
0
0
0
0
0
0
0
0
0
0
0
0
0
0
0
0
0
0
0
0
0
0
0
0
0
0
0
0
0
0
0
0
0
0
0
169.66998
169.66998
169.66998
169.66998
169.66998
169.66998
169.66998
169.66998
169.66998
169.66998
169.66998
169.66998
169.66998
169.66998
169.66998
169.66998
169.66998
169.66998
169.66998
169.66998
169.66998
169.66998
169.66998
169.66998
169.66998
169.66998
169.66998
169.66998
169.66998
169.66998
169.66998
169.14657
169.66998
169.66998
0
0
0
0
0
0
0
0
169.66998
169.66998
169.66998
169.66998
169.66998
169.66998
169.66998
169.66998
169.66998
169.66998
169.66998
169.66998
169.66998
169.66998
169.66998
169.66998
0
0
0
0
0
169.66998
169.66998
169.66998
169.66998
169.66998
169.66998
169.66998
169.66998
169.66998
169.66998
169.66998
169.66998
169.66998
169.66998
169.66998
169.66998
0
0
0
0
0
0
0
169.66998
0
169.66998
0
0
0
0
0
0
0
0
0
0
0
0
0
0
0
169.66998
0
0
0
0
0
0
0
0
0
0
0
0
0
0
0
0
0
0
0
0
0
0
0
0
0
0
0
0
0
0
0
0
0
0
0
0
0
0
0
0
0
0
0
0
0
0
0
0
0
0
0
0
0
0
0
0
0
0
0
0
0
0
0
0
0
0
0
0
0
0
0
0
0
0
0
0
0
0
0
0
0
0
0
0
0
0
0
0
0
0
0
0
0
0
0
0
0
0
0
0
0
0
0
0
0
0
0
0
0
0
0
0
0
0
0
0
0
0
0
0
0
0
0
0
0
0
0
0
0
0
0
0
0
0
0
0
0
0
0
0
0
0
0
0
0
0
0
0
0
0
0
0
0
0
0
0
0
0
0
0
0
0
0
0
0
0
0
0
0
0
0
0
0
0
0
0
0
0
0
0
0
0
0
0
0
0
0
0
0
0
0
0
0
0
0
0
0
0
0
0
0
0
0
0
0
169.66998
0
0
0
0
169.66998
169.66998
169.66998
169.66998
0
0
0
0
0
0
0
0
0
0
0
0
0
0
0
0
0
0
0
0
0
0
0
0
0
0
0
0
0
0
0
0
0
0
0
0
0
0
0
169.66998
169.66998
169.66998
0
0
0
0
169.66998
169.66998
169.66998
0
0
169.66998
169.66998
169.66998
169.66998
0
0
0
0
169.66998
169.66998
0
0
0
0
0
0
0
0
0
0
0
0
0
0
0
0
0
0
0
0
0
0
0
0
0
0
169.66998
169.66998
169.66998
169.66998
0
0
0
0
0
169.66998
169.66998
0
169.66998
0
169.66998
0
169.66998
0
169.66998
0
0
169.66998
169.66998
0
169.66998
169.66998
0
0
0
0
0
0
0
0
0
0
0
0
0
0
0
0
169.66998
0
169.66998
169.66998
169.66998
0
0
0
0
0
0
0
0
0
169.66998
169.66998
169.66998
169.66998
169.66998
169.66998
169.66998
169.66998
169.66998
169.66998
169.66998
169.66998
169.66998
169.66998
169.66998
169.66998
0
0
169.66998
169.66998
169.66998
169.66998
169.66998
169.66998
169.66998
169.66998
0
0
169.66998
169.66998
0
0
169.66998
169.66998
0
0
169.66998
169.66998
169.66998
169.66998
169.66998
169.66998
169.66998
169.66998
169.66998
169.66998
169.66998
169.66998
169.66998
169.66998
169.66998
169.66998
169.66998
169.66998
0
0
0
0
169.66998
169.66998
169.66998
169.66998
169.66998
169.66998
169.66998
169.66998
0
0
0
0
0
0
0
0
0
0
0
0
0
0
0
0
0
169.66998
169.66998
169.66998
169.66998
169.66998
169.66998
169.66998
169.66998
169.66998
169.66998
169.66998
169.66998
169.66998
169.66998
169.66998
169.66998
169.66998
169.66998
169.66998
169.66998
169.66998
169.66998
169.66998
169.66998
169.66998
169.66998
169.66998
169.66998
169.66998
169.66998
169.66998
169.66998
169.66998
169.66998
0
0
0
0
0
169.66998
169.66998
169.66998
169.66998
169.66998
169.66998
169.66998
169.66998
169.66998
169.66998
169.66998
169.66998
169.66998
169.66998
169.66998
169.66998
169.66998
169.66998
169.66998
169.66998
169.66998
169.66998
169.66998
169.66998
169.66998
169.66998
169.66998
169.66998
169.66998
169.66998
169.66998
169.66998
169.66998
169.66998
169.66998
169.66998
0
0
0
0
169.66998
169.66998
169.66998
169.66998
169.66998
169.66998
169.66998
169.66998
169.66998
169.66998
169.66998
169.66998
169.66998
169.66998
169.66998
169.66998
169.66998
169.66998
169.66998
169.66998
169.66998
169.66998
169.66998
169.66998
0
0
0
0
169.66998
169.66998
169.66998
169.66998
169.66998
169.66998
169.66998
169.66998
169.66998
169.66998
169.66998
169.66998
169.66998
169.66998
169.66998
169.66998
169.66998
169.66998
169.66998
169.66998
169.66998
169.66998
169.66998
169.66998
0
0
0
0
0
0
0
0
169.66998
169.66998
169.66998
169.66998
169.66998
169.66998
169.66998
169.66998
169.66998
169.66998
0
0
0
0
0
169.66998
0
0
0
0
0
0
0
0
0
0
0
169.66998
169.66998
169.66998
169.66998
169.66998
169.66998
169.66998
169.66998
169.66998
169.66998
0
0
0
0
0
0
0
169.66998
169.66998
169.66998
169.66998
169.66998
169.66998
169.66998
169.66998
169.66998
169.66998
169.66998
169.66998
0
0
0
0
0
0
0
0
169.66998
169.66998
169.66998
169.66998
169.66998
169.66998
169.66998
169.66998
169.66998
169.66998
169.66998
169.66998
0
0
169.66998
169.66998
169.66998
169.66998
169.66998
169.66998
169.66998
169.66998
169.66998
169.66998
169.66998
169.66998
169.66998
169.66998
169.66998
169.66998
0
0
169.66998
169.66998
169.66998
169.66998
169.66998
169.66998
169.66998
169.66998
169.66998
169.66998
169.66998
169.66998
169.66998
169.66998
169.66998
169.66998
0
0
0
0
169.66998
169.66998
169.66998
169.66998
169.66998
169.66998
169.66998
169.66998
169.66998
169.66998
169.66998
169.66998
0
0
0
0
0
0
0
0
0
0
169.66998
169.66998
169.66998
169.66998
169.66998
169.66998
169.66998
169.66998
169.66998
169.66998
169.66998
169.66998
169.66998
169.66998
169.66998
169.66998
169.66998
169.66998
169.66998
169.66998
169.66998
169.66998
169.66998
169.66998
169.66998
169.66998
169.66998
169.66998
169.66998
169.66998
169.66998
169.66998
169.66998
169.66998
169.66998
169.66998
169.66998
169.66998
169.66998
169.66998
0
0
0
0
0
0
0
0
169.66998
169.66998
169.66998
169.66998
169.66998
169.66998
169.66998
169.66998
169.66998
169.66998
169.66998
169.66998
169.66998
169.66998
169.66998
169.66998
0
0
0
0
0
0
0
0
0
0
0
0
0
0
0
0
0
0
)


1243
(
0
165.34141
0
536.2201
536.2201
165.34141
0
0
0
0
0
0
531.18139
536.2201
0
0
0
536.2201
0
0
0
0
0
0
536.2201
0
0
0
0
0
0
87.606379
536.2201
87.606379
0
0
0
0
536.2201
536.2201
536.2201
536.2201
36.232015
0
0
0
0
536.2201
536.2201
0
0
0
0
0
0
0
0
0
0
536.2201
536.2201
536.2201
536.2201
0
0
536.2201
42.468232
0
0
0
0
0
531.18139
0
0
36.232015
42.468232
0
0
0
0
0
0
0
36.232015
0
0
0
0
0
0
0
0
0
0
0
0
0
0
0
0
536.2201
536.2201
0
248.53716
87.606379
42.468232
0
0
0
0
0
536.2201
536.2201
536.2201
0
0
536.2201
0
0
0
536.2201
536.2201
0
0
0
0
0
536.2201
536.2201
0
42.468232
87.606379
536.2201
536.2201
536.2201
0
0
0
0
0
0
0
0
536.2201
536.2201
536.2201
0
0
0
0
0
0
0
0
0
0
0
0
0
0
536.2201
536.2201
0
0
0
0
0
0
0
145.17509
145.17509
145.17509
536.2201
536.2201
248.53716
145.17509
87.606379
87.606379
536.2201
536.2201
536.2201
536.2201
536.2201
536.2201
536.2201
536.2201
536.2201
536.2201
536.2201
536.2201
0
0
0
0
0
0
0
0
0
0
536.2201
536.2201
536.2201
536.2201
536.2201
536.2201
536.2201
536.2201
536.2201
536.2201
536.2201
536.2201
0
0
0
361.61133
361.61133
0
0
39.879751
39.879751
0
0
0
0
0
0
0
0
0
0
531.18139
531.18139
0
0
0
39.879751
39.879751
36.232015
0
0
0
0
0
0
0
0
0
0
0
0
0
0
0
536.2201
536.2201
536.2201
0
0
0
0
0
0
0
0
0
0
0
0
0
0
0
0
0
0
0
0
0
0
0
0
0
0
0
0
0
0
0
0
0
0
0
0
0
0
0
0
0
0
0
0
0
0
0
0
0
0
0
0
0
0
0
0
0
0
0
0
0
0
0
0
0
0
0
0
0
0
0
0
0
0
0
0
0
0
0
0
0
129.78276
129.78276
129.78276
129.78276
129.78276
129.78276
129.78276
129.78276
129.78276
129.78276
129.78276
129.78276
129.78276
129.78276
129.78276
129.78276
129.78276
129.78276
129.78276
129.78276
129.78276
129.78276
129.78276
129.78276
129.78276
129.78276
129.78276
129.78276
129.78276
129.78276
129.78276
48.922254
129.78276
129.78276
0
0
0
0
0
0
0
0
129.78276
129.78276
129.78276
129.78276
129.78276
129.78276
129.78276
129.78276
129.78276
129.78276
129.78276
129.78276
129.78276
129.78276
129.78276
129.78276
0
0
0
0
0
129.78276
129.78276
129.78276
129.78276
129.78276
129.78276
129.78276
129.78276
129.78276
129.78276
129.78276
129.78276
129.78276
129.78276
129.78276
129.78276
0
0
0
0
0
0
0
129.78276
0
129.78276
0
0
0
0
0
0
0
0
0
0
0
0
0
0
0
129.78276
0
0
0
0
0
0
0
0
0
0
0
0
0
0
0
0
0
0
0
0
0
0
0
0
0
0
0
0
0
0
0
0
0
0
0
0
0
0
0
0
0
0
0
0
0
0
0
0
0
0
0
0
0
0
0
0
0
0
0
0
0
0
0
0
0
0
0
0
0
0
0
0
0
0
0
0
0
0
0
0
0
0
0
0
0
0
0
0
0
0
0
0
0
0
0
0
0
0
0
0
0
0
0
0
0
0
0
0
0
0
0
0
0
0
0
0
0
0
0
0
0
0
0
0
0
0
0
0
0
0
0
0
0
0
0
0
0
0
0
0
0
0
0
0
0
0
0
0
0
0
0
0
0
0
0
0
0
0
0
0
0
0
0
0
0
0
0
0
0
0
0
0
0
0
0
0
0
0
0
0
0
0
0
0
0
0
0
0
0
0
0
0
0
0
0
0
0
0
0
0
0
0
0
0
0
129.78276
0
0
0
0
129.78276
129.78276
129.78276
129.78276
0
0
0
0
0
0
0
0
0
0
0
0
0
0
0
0
0
0
0
0
0
0
0
0
0
0
0
0
0
0
0
0
0
0
0
0
0
0
0
129.78276
129.78276
129.78276
0
0
0
0
129.78276
129.78276
129.78276
0
0
129.78276
129.78276
129.78276
129.78276
0
0
0
0
129.78276
129.78276
0
0
0
0
0
0
0
0
0
0
0
0
0
0
0
0
0
0
0
0
0
0
0
0
0
0
129.78276
129.78276
129.78276
129.78276
0
0
0
0
0
129.78276
129.78276
0
129.78276
0
129.78276
0
129.78276
0
129.78276
0
0
129.78276
129.78276
0
129.78276
129.78276
0
0
0
0
0
0
0
0
0
0
0
0
0
0
0
0
129.78276
0
129.78276
129.78276
129.78276
0
0
0
0
0
0
0
0
0
129.78276
129.78276
129.78276
129.78276
129.78276
129.78276
129.78276
129.78276
129.78276
129.78276
129.78276
129.78276
129.78276
129.78276
129.78276
129.78276
0
0
129.78276
129.78276
129.78276
129.78276
129.78276
129.78276
129.78276
129.78276
0
0
129.78276
129.78276
0
0
129.78276
129.78276
0
0
129.78276
129.78276
129.78276
129.78276
129.78276
129.78276
129.78276
129.78276
129.78276
129.78276
129.78276
129.78276
129.78276
129.78276
129.78276
129.78276
129.78276
129.78276
0
0
0
0
129.78276
129.78276
129.78276
129.78276
129.78276
129.78276
129.78276
129.78276
0
0
0
0
0
0
0
0
0
0
0
0
0
0
0
0
0
129.78276
129.78276
129.78276
129.78276
129.78276
129.78276
129.78276
129.78276
129.78276
129.78276
129.78276
129.78276
129.78276
129.78276
129.78276
129.78276
129.78276
129.78276
129.78276
129.78276
129.78276
129.78276
129.78276
129.78276
129.78276
129.78276
129.78276
129.78276
129.78276
129.78276
129.78276
129.78276
129.78276
129.78276
0
0
0
0
0
129.78276
129.78276
129.78276
129.78276
129.78276
129.78276
129.78276
129.78276
129.78276
129.78276
129.78276
129.78276
129.78276
129.78276
129.78276
129.78276
129.78276
129.78276
129.78276
129.78276
129.78276
129.78276
129.78276
129.78276
129.78276
129.78276
129.78276
129.78276
129.78276
129.78276
129.78276
129.78276
129.78276
129.78276
129.78276
129.78276
0
0
0
0
129.78276
129.78276
129.78276
129.78276
129.78276
129.78276
129.78276
129.78276
129.78276
129.78276
129.78276
129.78276
129.78276
129.78276
129.78276
129.78276
129.78276
129.78276
129.78276
129.78276
129.78276
129.78276
129.78276
129.78276
0
0
0
0
129.78276
129.78276
129.78276
129.78276
129.78276
129.78276
129.78276
129.78276
129.78276
129.78276
129.78276
129.78276
129.78276
129.78276
129.78276
129.78276
129.78276
129.78276
129.78276
129.78276
129.78276
129.78276
129.78276
129.78276
0
0
0
0
0
0
0
0
129.78276
129.78276
129.78276
129.78276
129.78276
129.78276
129.78276
129.78276
129.78276
129.78276
0
0
0
0
0
129.78276
0
0
0
0
0
0
0
0
0
0
0
129.78276
129.78276
129.78276
129.78276
129.78276
129.78276
129.78276
129.78276
129.78276
129.78276
0
0
0
0
0
0
0
129.78276
129.78276
129.78276
129.78276
129.78276
129.78276
129.78276
129.78276
129.78276
129.78276
129.78276
129.78276
0
0
0
0
0
0
0
0
129.78276
129.78276
129.78276
129.78276
129.78276
129.78276
129.78276
129.78276
129.78276
129.78276
129.78276
129.78276
0
0
129.78276
129.78276
129.78276
129.78276
129.78276
129.78276
129.78276
129.78276
129.78276
129.78276
129.78276
129.78276
129.78276
129.78276
129.78276
129.78276
0
0
129.78276
129.78276
129.78276
129.78276
129.78276
129.78276
129.78276
129.78276
129.78276
129.78276
129.78276
129.78276
129.78276
129.78276
129.78276
129.78276
0
0
0
0
129.78276
129.78276
129.78276
129.78276
129.78276
129.78276
129.78276
129.78276
129.78276
129.78276
129.78276
129.78276
0
0
0
0
0
0
0
0
0
0
129.78276
129.78276
129.78276
129.78276
129.78276
129.78276
129.78276
129.78276
129.78276
129.78276
129.78276
129.78276
129.78276
129.78276
129.78276
129.78276
129.78276
129.78276
129.78276
129.78276
129.78276
129.78276
129.78276
129.78276
129.78276
129.78276
129.78276
129.78276
129.78276
129.78276
129.78276
129.78276
129.78276
129.78276
129.78276
129.78276
129.78276
129.78276
129.78276
129.78276
0
0
0
0
0
0
0
0
129.78276
129.78276
129.78276
129.78276
129.78276
129.78276
129.78276
129.78276
129.78276
129.78276
129.78276
129.78276
129.78276
129.78276
129.78276
129.78276
0
0
0
0
0
0
0
0
0
0
0
0
0
0
0
0
0
0
)


1243
(
411.8157
31.403226
0
31.403226
31.403226
31.403226
0
411.8157
411.8157
411.8157
0
411.8157
68.531091
68.531091
0
0
411.8157
0
0
0
167.94888
0
0
0
167.94888
0
0
0
0
0
0
99.544435
113.98699
99.544435
0
25.402282
0
0
411.8157
411.8157
113.98699
136.63091
18.62482
25.402282
20.452966
0
0
411.8157
411.8157
0
0
0
0
0
0
0
0
0
0
411.8157
411.8157
411.8157
411.8157
25.402282
0
33.873989
27.235608
20.452966
25.402282
411.8157
0
0
68.531091
0
0
18.62482
27.235608
0
0
411.8157
0
27.666368
65.393426
0
18.62482
23.692703
20.452966
0
0
0
0
0
0
411.8157
0
411.8157
411.8157
0
0
0
0
411.8157
411.8157
411.8157
113.98699
99.544435
27.235608
0
0
0
0
0
33.873989
136.63091
113.98699
0
0
0
0
0
411.8157
411.8157
411.8157
0
0
0
0
0
411.8157
411.8157
411.8157
27.235608
99.544435
225.04632
136.63091
68.531091
0
0
0
0
0
0
0
0
0
411.8157
411.8157
0
0
0
0
0
0
0
0
0
0
0
0
0
411.8157
411.8157
411.8157
0
0
0
0
0
0
0
174.89266
411.8157
411.8157
411.8157
411.8157
113.98699
411.8157
411.8157
99.544435
411.8157
411.8157
411.8157
411.8157
411.8157
411.8157
193.50926
411.8157
411.8157
411.8157
411.8157
193.50926
0
0
0
0
0
0
0
0
0
0
411.8157
411.8157
411.8157
411.8157
411.8157
411.8157
411.8157
411.8157
411.8157
411.8157
411.8157
411.8157
27.666368
27.666368
27.666368
33.873989
33.873989
0
20.452966
20.661956
20.661956
23.692703
23.692703
23.692703
0
340.50019
340.50019
380.22593
380.22593
0
0
68.531091
68.531091
65.393426
65.393426
65.393426
20.661956
20.661956
18.62482
0
151.84994
151.84994
151.84994
411.8157
0
0
0
0
411.8157
0
0
411.8157
411.8157
0
411.8157
411.8157
411.8157
0
0
0
0
0
0
0
0
0
0
0
0
0
0
0
0
0
0
0
0
0
0
0
0
0
0
0
0
0
0
0
0
0
0
0
0
0
0
0
0
0
0
0
0
0
0
0
0
0
0
0
0
0
0
0
0
0
0
0
0
0
0
0
0
0
0
0
0
0
0
0
0
0
0
0
0
0
0
0
0
0
61.054291
61.054291
61.054291
61.054291
61.054291
61.054291
61.054291
61.054291
61.054291
61.054291
61.054291
61.054291
61.054291
61.054291
61.054291
61.054291
61.054291
61.054291
61.054291
61.054291
61.054291
61.054291
61.054291
61.054291
61.054291
61.054291
61.054291
61.054291
61.054291
61.054291
61.054291
60.787132
61.054291
61.054291
0
0
0
0
0
0
0
0
61.054291
61.054291
61.054291
61.054291
61.054291
61.054291
61.054291
61.054291
61.054291
61.054291
61.054291
61.054291
61.054291
61.054291
61.054291
61.054291
0
0
0
0
0
61.054291
61.054291
61.054291
61.054291
61.054291
61.054291
61.054291
61.054291
61.054291
61.054291
61.054291
61.054291
61.054291
61.054291
61.054291
61.054291
0
0
0
0
0
0
0
61.054291
0
61.054291
0
0
0
0
0
0
0
0
0
0
0
0
0
0
0
61.054291
0
0
0
0
0
0
0
0
0
0
0
0
0
0
0
0
0
0
0
0
0
0
0
0
0
0
0
0
0
0
0
0
0
0
0
0
0
0
0
0
0
0
0
0
0
0
0
0
0
0
0
0
0
0
0
0
0
0
0
0
0
0
0
0
0
0
0
0
0
0
0
0
0
0
0
0
0
0
0
0
0
0
0
0
0
0
0
0
0
0
0
0
0
0
0
0
0
0
0
0
0
0
0
0
0
0
0
0
0
0
0
0
0
0
0
0
0
0
0
0
0
0
0
0
0
0
0
0
0
0
0
0
0
0
0
0
0
0
0
0
0
0
0
0
0
0
0
0
0
0
0
0
0
0
0
0
0
0
0
0
0
0
0
0
0
0
0
0
0
0
0
0
0
0
0
0
0
0
0
0
0
0
0
0
0
0
0
0
0
0
0
0
0
0
0
0
0
0
0
0
0
0
0
0
0
61.054291
0
0
0
0
61.054291
61.054291
61.054291
61.054291
0
0
0
0
0
0
0
0
0
0
0
0
0
0
0
0
0
0
0
0
0
0
0
0
0
0
0
0
0
0
0
0
0
0
0
0
0
0
0
61.054291
61.054291
61.054291
0
0
0
0
61.054291
61.054291
61.054291
0
0
61.054291
61.054291
61.054291
61.054291
0
0
0
0
61.054291
61.054291
0
0
0
0
0
0
0
0
0
0
0
0
0
0
0
0
0
0
0
0
0
0
0
0
0
0
61.054291
61.054291
61.054291
61.054291
0
0
0
0
0
61.054291
61.054291
0
61.054291
0
61.054291
0
61.054291
0
61.054291
0
0
61.054291
61.054291
0
61.054291
61.054291
0
0
0
0
0
0
0
0
0
0
0
0
0
0
0
0
61.054291
0
61.054291
61.054291
61.054291
0
0
0
0
0
0
0
0
0
61.054291
61.054291
61.054291
61.054291
61.054291
61.054291
61.054291
61.054291
61.054291
61.054291
61.054291
61.054291
61.054291
61.054291
61.054291
61.054291
0
0
61.054291
61.054291
61.054291
61.054291
61.054291
61.054291
61.054291
61.054291
0
0
61.054291
61.054291
0
0
61.054291
61.054291
0
0
61.054291
61.054291
61.054291
61.054291
61.054291
61.054291
61.054291
61.054291
61.054291
61.054291
61.054291
61.054291
61.054291
61.054291
61.054291
61.054291
61.054291
61.054291
0
0
0
0
61.054291
61.054291
61.054291
61.054291
61.054291
61.054291
61.054291
61.054291
0
0
0
0
0
0
0
0
0
0
0
0
0
0
0
0
0
61.054291
61.054291
61.054291
61.054291
61.054291
61.054291
61.054291
61.054291
61.054291
61.054291
61.054291
61.054291
61.054291
61.054291
61.054291
61.054291
61.054291
61.054291
61.054291
61.054291
61.054291
61.054291
61.054291
61.054291
61.054291
61.054291
61.054291
61.054291
61.054291
61.054291
61.054291
61.054291
61.054291
61.054291
0
0
0
0
0
61.054291
61.054291
61.054291
61.054291
61.054291
61.054291
61.054291
61.054291
61.054291
61.054291
61.054291
61.054291
61.054291
61.054291
61.054291
61.054291
61.054291
61.054291
61.054291
61.054291
61.054291
61.054291
61.054291
61.054291
61.054291
61.054291
61.054291
61.054291
61.054291
61.054291
61.054291
61.054291
61.054291
61.054291
61.054291
61.054291
0
0
0
0
61.054291
61.054291
61.054291
61.054291
61.054291
61.054291
61.054291
61.054291
61.054291
61.054291
61.054291
61.054291
61.054291
61.054291
61.054291
61.054291
61.054291
61.054291
61.054291
61.054291
61.054291
61.054291
61.054291
61.054291
0
0
0
0
61.054291
61.054291
61.054291
61.054291
61.054291
61.054291
61.054291
61.054291
61.054291
61.054291
61.054291
61.054291
61.054291
61.054291
61.054291
61.054291
61.054291
61.054291
61.054291
61.054291
61.054291
61.054291
61.054291
61.054291
0
0
0
0
0
0
0
0
61.054291
61.054291
61.054291
61.054291
61.054291
61.054291
61.054291
61.054291
61.054291
61.054291
0
0
0
0
0
61.054291
0
0
0
0
0
0
0
0
0
0
0
61.054291
61.054291
61.054291
61.054291
61.054291
61.054291
61.054291
61.054291
61.054291
61.054291
0
0
0
0
0
0
0
61.054291
61.054291
61.054291
61.054291
61.054291
61.054291
61.054291
61.054291
61.054291
61.054291
61.054291
61.054291
0
0
0
0
0
0
0
0
61.054291
61.054291
61.054291
61.054291
61.054291
61.054291
61.054291
61.054291
61.054291
61.054291
61.054291
61.054291
0
0
61.054291
61.054291
61.054291
61.054291
61.054291
61.054291
61.054291
61.054291
61.054291
61.054291
61.054291
61.054291
61.054291
61.054291
61.054291
61.054291
0
0
61.054291
61.054291
61.054291
61.054291
61.054291
61.054291
61.054291
61.054291
61.054291
61.054291
61.054291
61.054291
61.054291
61.054291
61.054291
61.054291
0
0
0
0
61.054291
61.054291
61.054291
61.054291
61.054291
61.054291
61.054291
61.054291
61.054291
61.054291
61.054291
61.054291
0
0
0
0
0
0
0
0
0
0
61.054291
61.054291
61.054291
61.054291
61.054291
61.054291
61.054291
61.054291
61.054291
61.054291
61.054291
61.054291
61.054291
61.054291
61.054291
61.054291
61.054291
61.054291
61.054291
61.054291
61.054291
61.054291
61.054291
61.054291
61.054291
61.054291
61.054291
61.054291
61.054291
61.054291
61.054291
61.054291
61.054291
61.054291
61.054291
61.054291
61.054291
61.054291
61.054291
61.054291
0
0
0
0
0
0
0
0
61.054291
61.054291
61.054291
61.054291
61.054291
61.054291
61.054291
61.054291
61.054291
61.054291
61.054291
61.054291
61.054291
61.054291
61.054291
61.054291
0
0
0
0
0
0
0
0
0
0
0
0
0
0
0
0
0
0
)


1243
(
284.42858
24.569626
284.42858
24.569626
24.569626
24.569626
0
284.42858
85.645174
85.645174
0
85.645174
39.026363
39.026363
0
0
284.42858
0
65.678839
284.42858
47.985649
0
284.42858
0
47.985649
0
0
284.42858
284.42858
0
0
0
284.42858
0
7.7353272
4.7985029
14.341633
9.9054854
284.42858
284.42858
284.42858
284.42858
0
4.7985029
2.9574937
0
0
284.42858
284.42858
0
0
51.009637
29.288413
21.124145
14.341633
29.288413
21.124145
0
284.42858
284.42858
284.42858
284.42858
284.42858
4.7985029
7.7353272
22.719316
0
2.9574937
4.7985029
103.85047
21.124145
29.288413
39.026363
9.9054854
14.341633
0
0
14.341633
21.124145
47.985649
7.7353272
7.9298093
16.36415
9.9054854
0
5.8041912
2.9574937
18.041704
18.041704
24.88315
24.88315
43.716914
51.009637
254.53755
284.42858
284.42858
284.42858
0
29.288413
0
0
0
0
284.42858
284.42858
284.42858
0
284.42858
176.22361
176.22361
284.42858
284.42858
22.719316
284.42858
284.42858
0
0
0
0
0
284.42858
284.42858
284.42858
0
0
272.6866
272.6866
0
284.42858
284.42858
103.85047
0
0
284.42858
284.42858
39.026363
0
0
0
0
0
0
0
0
254.53755
284.42858
284.42858
283.35314
0
0
0
65.678839
51.009637
0
0
0
0
284.42858
0
0
47.985649
284.42858
284.42858
0
0
284.42858
284.42858
284.42858
0
0
284.42858
284.42858
245.52503
284.42858
284.42858
284.42858
245.52503
0
0
284.42858
284.42858
284.42858
284.42858
284.42858
284.42858
284.42858
284.42858
284.42858
284.42858
284.42858
284.42858
0
0
51.009637
0
0
0
0
284.42858
0
0
284.42858
271.2391
271.2391
277.74846
277.74846
284.42858
284.42858
284.42858
284.42858
257.36447
284.42858
284.42858
7.9298093
7.9298093
7.9298093
22.719316
22.719316
7.7353272
2.9574937
0
0
5.8041912
5.8041912
5.8041912
24.88315
103.85047
103.85047
85.645174
85.645174
24.88315
9.9054854
39.026363
39.026363
16.36415
16.36415
16.36415
0
0
0
18.041704
27.125593
27.125593
27.125593
27.125593
18.041704
43.716914
43.716914
43.716914
254.53755
51.009637
65.678839
284.42858
284.42858
284.42858
284.42858
283.35314
283.35314
4.480785
0.40098617
0.58745752
0.90078665
0.66702447
0.35281955
0.21501202
0.17295152
1.7246649
1.775343
1.3222125
0.97287318
1.2249974
0.64634495
0.45550156
0.8840143
0.51732176
1.202668
0.83403865
0.95486201
0.75729058
0.56688856
0.30323499
0.35934436
0.25691645
0.30956768
0.26852785
0
2.6849273
1.6523706
2.9203719
2.0838655
1.4836043
1.2989029
1.0507129
1.8659376
1.1346813
0
2.3154896
0
2.8901051
0
13.053587
0
13.053587
0
0
0
0
0
0
0
0.90561751
0.67253976
0.97804183
1.2322155
0.38572861
0.59149252
0
0
0
2.2142835
1.9494402
1.3307497
0
0
0
0
0
0
0
0
0
0
0
0
0
0
0
0
0
0