/*--------------------------------*- C++ -*----------------------------------*\
  =========                 |
  \\      /  F ield         | OpenFOAM: The Open Source CFD Toolbox
   \\    /   O peration     | Website:  https://openfoam.org
    \\  /    A nd           | Version:  8
     \\/     M anipulation  |
\*---------------------------------------------------------------------------*/
/*   Windows 32 and 64 bit porting by blueCAPE: http://www.bluecape.com.pt   *\
|  Based on Windows porting (2.0.x v4) by Symscape: http://www.symscape.com   |
\*---------------------------------------------------------------------------*/
FoamFile
{
    version     2.0;
    format      ascii;
    class       scalarListList;
    location    "constant/vegetation";
    object      sunViewCoeff;
}
// * * * * * * * * * * * * * * * * * * * * * * * * * * * * * * * * * * * * * //


5
(

1042
(
0
0
717.08284
0
717.08284
0
0
717.08284
717.08284
621.67652
717.08284
0
717.08284
0
579.4885
359.82388
0
717.08284
0
495.0741
141.81897
0
0
0
0
0
167.02519
0
0
588.11279
319.91559
213.28309
421.5473
0
0
224.90684
343.07232
348.03154
167.37725
168.02824
0
357.05897
0
0
0
0
0
0
0
0
0
527.93808
524.89452
341.52381
180.47312
0
0
0
0
0
0
0
0
0
0
0
0
0
0
0
0
0
0
0
0
0
0
0
0
0
0
0
0
0
0
0
0
0
0
0
0
0
0
0
0
0
0
0
0
0
0
0
0
0
0
0
0
0
0
0
0
0
0
0
0
0
0
0
0
0
0
0
0
0
0
0
0
0
0
0
0
0
0
0
0
0
0
0
222.06862
222.06862
222.06862
222.06862
222.06862
222.06862
222.06862
222.06862
222.06862
222.06862
222.06862
222.06862
222.06862
222.06862
222.06862
222.06862
222.06862
222.06862
222.06862
222.06862
222.06862
222.06862
222.06862
222.06862
222.06862
222.06862
222.06862
222.06862
222.06862
222.06862
222.06862
221.36367
222.06862
222.06862
0
0
0
0
0
0
0
0
222.06862
222.06862
222.06862
222.06862
222.06862
222.06862
222.06862
222.06862
222.06862
222.06862
222.06862
222.06862
222.06862
222.06862
222.06862
222.06862
0
0
0
0
0
222.06862
222.06862
222.06862
222.06862
222.06862
222.06862
222.06862
222.06862
222.06862
222.06862
222.06862
222.06862
222.06862
222.06862
222.06862
222.06862
0
0
0
0
0
0
0
222.06862
0
222.06862
0
0
0
0
0
0
0
0
0
0
0
0
0
0
0
222.06862
0
0
0
0
0
0
0
0
0
0
0
0
0
0
0
0
0
0
0
0
0
0
0
0
0
0
0
0
0
0
0
0
0
0
0
0
0
0
0
0
0
0
0
0
0
0
0
0
0
0
0
0
0
0
0
0
0
0
0
0
0
0
0
0
0
0
0
0
0
0
0
0
0
0
0
0
0
0
0
0
0
0
0
0
0
0
0
0
0
0
0
0
0
0
0
0
0
0
0
0
0
0
0
0
0
0
0
0
0
0
0
0
0
0
0
0
0
0
0
0
0
0
0
0
0
0
0
0
0
0
0
0
0
0
0
0
0
0
0
0
0
0
0
0
0
0
0
0
0
0
0
0
0
0
0
0
0
0
0
0
0
0
0
0
0
0
0
0
0
0
0
0
0
0
0
0
0
0
0
0
0
0
0
0
0
0
0
0
0
0
0
0
0
0
0
0
0
0
0
0
0
0
0
0
0
222.06862
0
0
0
0
222.06862
222.06862
222.06862
222.06862
0
0
0
0
0
0
0
0
0
0
0
0
0
0
0
0
0
0
0
0
0
0
0
0
0
0
0
0
0
0
0
0
0
0
0
0
0
0
0
222.06862
222.06862
222.06862
0
0
0
0
222.06862
222.06862
222.06862
0
0
222.06862
222.06862
222.06862
222.06862
0
0
0
0
222.06862
222.06862
0
0
0
0
0
0
0
0
0
0
0
0
0
0
0
0
0
0
0
0
0
0
0
0
0
0
222.06862
222.06862
222.06862
222.06862
0
0
0
0
0
222.06862
222.06862
0
222.06862
0
222.06862
0
222.06862
0
222.06862
0
0
222.06862
222.06862
0
222.06862
222.06862
0
0
0
0
0
0
0
0
0
0
0
0
0
0
0
0
222.06862
0
222.06862
222.06862
222.06862
0
0
0
0
0
0
0
0
0
222.06862
222.06862
222.06862
222.06862
222.06862
222.06862
222.06862
222.06862
222.06862
222.06862
222.06862
222.06862
222.06862
222.06862
222.06862
222.06862
0
0
222.06862
222.06862
222.06862
222.06862
222.06862
222.06862
222.06862
222.06862
0
0
222.06862
222.06862
0
0
222.06862
222.06862
0
0
222.06862
222.06862
222.06862
222.06862
222.06862
222.06862
222.06862
222.06862
222.06862
222.06862
222.06862
222.06862
222.06862
222.06862
222.06862
222.06862
222.06862
222.06862
0
0
0
0
222.06862
222.06862
222.06862
222.06862
222.06862
222.06862
222.06862
222.06862
0
0
0
0
0
0
0
0
0
0
0
0
0
0
0
0
0
222.06862
222.06862
222.06862
222.06862
222.06862
222.06862
222.06862
222.06862
222.06862
222.06862
222.06862
222.06862
222.06862
222.06862
222.06862
222.06862
222.06862
222.06862
222.06862
222.06862
222.06862
222.06862
222.06862
222.06862
222.06862
222.06862
222.06862
222.06862
222.06862
222.06862
222.06862
222.06862
222.06862
222.06862
0
0
0
0
0
222.06862
222.06862
222.06862
222.06862
222.06862
222.06862
222.06862
222.06862
222.06862
222.06862
222.06862
222.06862
222.06862
222.06862
222.06862
222.06862
222.06862
222.06862
222.06862
222.06862
222.06862
222.06862
222.06862
222.06862
222.06862
222.06862
222.06862
222.06862
222.06862
222.06862
222.06862
222.06862
222.06862
222.06862
222.06862
222.06862
0
0
0
0
222.06862
222.06862
222.06862
222.06862
222.06862
222.06862
222.06862
222.06862
222.06862
222.06862
222.06862
222.06862
222.06862
222.06862
222.06862
222.06862
222.06862
222.06862
222.06862
222.06862
222.06862
222.06862
222.06862
222.06862
0
0
0
0
222.06862
222.06862
222.06862
222.06862
222.06862
222.06862
222.06862
222.06862
222.06862
222.06862
222.06862
222.06862
222.06862
222.06862
222.06862
222.06862
222.06862
222.06862
222.06862
222.06862
222.06862
222.06862
222.06862
222.06862
0
0
0
0
0
0
0
0
222.06862
222.06862
222.06862
222.06862
222.06862
222.06862
222.06862
222.06862
222.06862
222.06862
0
0
0
0
0
222.06862
0
0
0
0
0
0
0
0
0
0
0
222.06862
222.06862
222.06862
222.06862
222.06862
222.06862
222.06862
222.06862
222.06862
222.06862
0
0
0
0
0
0
0
222.06862
222.06862
222.06862
222.06862
222.06862
222.06862
222.06862
222.06862
222.06862
222.06862
222.06862
222.06862
0
0
0
0
0
0
0
0
222.06862
222.06862
222.06862
222.06862
222.06862
222.06862
222.06862
222.06862
222.06862
222.06862
222.06862
222.06862
0
0
222.06862
222.06862
222.06862
222.06862
222.06862
222.06862
222.06862
222.06862
222.06862
222.06862
222.06862
222.06862
222.06862
222.06862
222.06862
222.06862
0
0
222.06862
222.06862
222.06862
222.06862
222.06862
222.06862
222.06862
222.06862
222.06862
222.06862
222.06862
222.06862
222.06862
222.06862
222.06862
222.06862
0
0
0
0
222.06862
222.06862
222.06862
222.06862
222.06862
222.06862
222.06862
222.06862
222.06862
222.06862
222.06862
222.06862
0
0
0
0
0
0
0
0
0
0
222.06862
222.06862
222.06862
222.06862
222.06862
222.06862
222.06862
222.06862
222.06862
222.06862
222.06862
222.06862
222.06862
222.06862
222.06862
222.06862
222.06862
222.06862
222.06862
222.06862
222.06862
222.06862
222.06862
222.06862
222.06862
222.06862
222.06862
222.06862
222.06862
222.06862
222.06862
222.06862
222.06862
222.06862
222.06862
222.06862
222.06862
222.06862
222.06862
222.06862
0
0
0
0
0
0
0
0
222.06862
222.06862
222.06862
222.06862
222.06862
222.06862
222.06862
222.06862
222.06862
222.06862
222.06862
222.06862
222.06862
222.06862
222.06862
222.06862
0
0
0
0
0
0
0
0
0
0
0
0
0
0
0
0
0
0
)


1042
(
0
0
585.76158
148.3477
294.27312
0
0
585.76158
0
132.09426
0
0
0
0
0
0
0
262.35034
0
585.76158
585.76158
0
0
0
0
351.59141
286.28832
272.83532
0
247.99159
272.68957
0
0
0
0
0
585.76158
585.76158
286.75162
287.58697
0
585.76158
0
0
0
0
0
0
0
0
0
585.76158
585.76158
585.76158
546.33153
0
0
0
0
0
0
0
0
0
0
0
0
0
0
0
0
0
0
0
0
0
0
0
0
0
0
0
0
0
0
0
0
0
0
0
0
0
0
0
0
0
0
0
0
0
0
0
0
0
0
0
0
0
0
0
0
0
0
0
0
0
0
0
0
0
0
0
0
0
0
0
0
0
0
0
0
0
0
0
0
0
0
0
169.66998
169.66998
169.66998
169.66998
169.66998
169.66998
169.66998
169.66998
169.66998
169.66998
169.66998
169.66998
169.66998
169.66998
169.66998
169.66998
169.66998
169.66998
169.66998
169.66998
169.66998
169.66998
169.66998
169.66998
169.66998
169.66998
169.66998
169.66998
169.66998
169.66998
169.66998
169.14657
169.66998
169.66998
0
0
0
0
0
0
0
0
169.66998
169.66998
169.66998
169.66998
169.66998
169.66998
169.66998
169.66998
169.66998
169.66998
169.66998
169.66998
169.66998
169.66998
169.66998
169.66998
0
0
0
0
0
169.66998
169.66998
169.66998
169.66998
169.66998
169.66998
169.66998
169.66998
169.66998
169.66998
169.66998
169.66998
169.66998
169.66998
169.66998
169.66998
0
0
0
0
0
0
0
169.66998
0
169.66998
0
0
0
0
0
0
0
0
0
0
0
0
0
0
0
169.66998
0
0
0
0
0
0
0
0
0
0
0
0
0
0
0
0
0
0
0
0
0
0
0
0
0
0
0
0
0
0
0
0
0
0
0
0
0
0
0
0
0
0
0
0
0
0
0
0
0
0
0
0
0
0
0
0
0
0
0
0
0
0
0
0
0
0
0
0
0
0
0
0
0
0
0
0
0
0
0
0
0
0
0
0
0
0
0
0
0
0
0
0
0
0
0
0
0
0
0
0
0
0
0
0
0
0
0
0
0
0
0
0
0
0
0
0
0
0
0
0
0
0
0
0
0
0
0
0
0
0
0
0
0
0
0
0
0
0
0
0
0
0
0
0
0
0
0
0
0
0
0
0
0
0
0
0
0
0
0
0
0
0
0
0
0
0
0
0
0
0
0
0
0
0
0
0
0
0
0
0
0
0
0
0
0
0
0
0
0
0
0
0
0
0
0
0
0
0
0
0
0
0
0
0
0
169.66998
0
0
0
0
169.66998
169.66998
169.66998
169.66998
0
0
0
0
0
0
0
0
0
0
0
0
0
0
0
0
0
0
0
0
0
0
0
0
0
0
0
0
0
0
0
0
0
0
0
0
0
0
0
169.66998
169.66998
169.66998
0
0
0
0
169.66998
169.66998
169.66998
0
0
169.66998
169.66998
169.66998
169.66998
0
0
0
0
169.66998
169.66998
0
0
0
0
0
0
0
0
0
0
0
0
0
0
0
0
0
0
0
0
0
0
0
0
0
0
169.66998
169.66998
169.66998
169.66998
0
0
0
0
0
169.66998
169.66998
0
169.66998
0
169.66998
0
169.66998
0
169.66998
0
0
169.66998
169.66998
0
169.66998
169.66998
0
0
0
0
0
0
0
0
0
0
0
0
0
0
0
0
169.66998
0
169.66998
169.66998
169.66998
0
0
0
0
0
0
0
0
0
169.66998
169.66998
169.66998
169.66998
169.66998
169.66998
169.66998
169.66998
169.66998
169.66998
169.66998
169.66998
169.66998
169.66998
169.66998
169.66998
0
0
169.66998
169.66998
169.66998
169.66998
169.66998
169.66998
169.66998
169.66998
0
0
169.66998
169.66998
0
0
169.66998
169.66998
0
0
169.66998
169.66998
169.66998
169.66998
169.66998
169.66998
169.66998
169.66998
169.66998
169.66998
169.66998
169.66998
169.66998
169.66998
169.66998
169.66998
169.66998
169.66998
0
0
0
0
169.66998
169.66998
169.66998
169.66998
169.66998
169.66998
169.66998
169.66998
0
0
0
0
0
0
0
0
0
0
0
0
0
0
0
0
0
169.66998
169.66998
169.66998
169.66998
169.66998
169.66998
169.66998
169.66998
169.66998
169.66998
169.66998
169.66998
169.66998
169.66998
169.66998
169.66998
169.66998
169.66998
169.66998
169.66998
169.66998
169.66998
169.66998
169.66998
169.66998
169.66998
169.66998
169.66998
169.66998
169.66998
169.66998
169.66998
169.66998
169.66998
0
0
0
0
0
169.66998
169.66998
169.66998
169.66998
169.66998
169.66998
169.66998
169.66998
169.66998
169.66998
169.66998
169.66998
169.66998
169.66998
169.66998
169.66998
169.66998
169.66998
169.66998
169.66998
169.66998
169.66998
169.66998
169.66998
169.66998
169.66998
169.66998
169.66998
169.66998
169.66998
169.66998
169.66998
169.66998
169.66998
169.66998
169.66998
0
0
0
0
169.66998
169.66998
169.66998
169.66998
169.66998
169.66998
169.66998
169.66998
169.66998
169.66998
169.66998
169.66998
169.66998
169.66998
169.66998
169.66998
169.66998
169.66998
169.66998
169.66998
169.66998
169.66998
169.66998
169.66998
0
0
0
0
169.66998
169.66998
169.66998
169.66998
169.66998
169.66998
169.66998
169.66998
169.66998
169.66998
169.66998
169.66998
169.66998
169.66998
169.66998
169.66998
169.66998
169.66998
169.66998
169.66998
169.66998
169.66998
169.66998
169.66998
0
0
0
0
0
0
0
0
169.66998
169.66998
169.66998
169.66998
169.66998
169.66998
169.66998
169.66998
169.66998
169.66998
0
0
0
0
0
169.66998
0
0
0
0
0
0
0
0
0
0
0
169.66998
169.66998
169.66998
169.66998
169.66998
169.66998
169.66998
169.66998
169.66998
169.66998
0
0
0
0
0
0
0
169.66998
169.66998
169.66998
169.66998
169.66998
169.66998
169.66998
169.66998
169.66998
169.66998
169.66998
169.66998
0
0
0
0
0
0
0
0
169.66998
169.66998
169.66998
169.66998
169.66998
169.66998
169.66998
169.66998
169.66998
169.66998
169.66998
169.66998
0
0
169.66998
169.66998
169.66998
169.66998
169.66998
169.66998
169.66998
169.66998
169.66998
169.66998
169.66998
169.66998
169.66998
169.66998
169.66998
169.66998
0
0
169.66998
169.66998
169.66998
169.66998
169.66998
169.66998
169.66998
169.66998
169.66998
169.66998
169.66998
169.66998
169.66998
169.66998
169.66998
169.66998
0
0
0
0
169.66998
169.66998
169.66998
169.66998
169.66998
169.66998
169.66998
169.66998
169.66998
169.66998
169.66998
169.66998
0
0
0
0
0
0
0
0
0
0
169.66998
169.66998
169.66998
169.66998
169.66998
169.66998
169.66998
169.66998
169.66998
169.66998
169.66998
169.66998
169.66998
169.66998
169.66998
169.66998
169.66998
169.66998
169.66998
169.66998
169.66998
169.66998
169.66998
169.66998
169.66998
169.66998
169.66998
169.66998
169.66998
169.66998
169.66998
169.66998
169.66998
169.66998
169.66998
169.66998
169.66998
169.66998
169.66998
169.66998
0
0
0
0
0
0
0
0
169.66998
169.66998
169.66998
169.66998
169.66998
169.66998
169.66998
169.66998
169.66998
169.66998
169.66998
169.66998
169.66998
169.66998
169.66998
169.66998
0
0
0
0
0
0
0
0
0
0
0
0
0
0
0
0
0
0
)


1042
(
0
0
214.62515
349.91895
0
0
533.45477
265.51802
0
120.92223
0
135.97816
0
0
0
0
0
0
0
87.606379
430.73706
0
0
0
0
536.2201
536.2201
36.232015
0
0
488.25475
0
0
0
0
0
536.2201
536.2201
536.2201
536.2201
501.76299
42.468232
240.33119
0
0
0
0
0
0
0
0
145.17509
536.2201
536.2201
39.879751
0
0
0
0
0
0
0
0
0
0
0
0
0
0
0
0
0
0
0
0
0
0
0
0
0
0
0
0
0
0
0
0
0
0
0
0
0
0
0
0
0
0
0
0
0
0
0
0
0
0
0
0
0
0
0
0
0
0
0
0
0
0
0
0
0
0
0
0
0
0
0
0
0
0
0
0
0
0
0
0
0
0
0
129.78276
129.78276
129.78276
129.78276
129.78276
129.78276
129.78276
129.78276
129.78276
129.78276
129.78276
129.78276
129.78276
129.78276
129.78276
129.78276
129.78276
129.78276
129.78276
129.78276
129.78276
129.78276
129.78276
129.78276
129.78276
129.78276
129.78276
129.78276
129.78276
129.78276
129.78276
48.922254
129.78276
129.78276
0
0
0
0
0
0
0
0
129.78276
129.78276
129.78276
129.78276
129.78276
129.78276
129.78276
129.78276
129.78276
129.78276
129.78276
129.78276
129.78276
129.78276
129.78276
129.78276
0
0
0
0
0
129.78276
129.78276
129.78276
129.78276
129.78276
129.78276
129.78276
129.78276
129.78276
129.78276
129.78276
129.78276
129.78276
129.78276
129.78276
129.78276
0
0
0
0
0
0
0
129.78276
0
129.78276
0
0
0
0
0
0
0
0
0
0
0
0
0
0
0
129.78276
0
0
0
0
0
0
0
0
0
0
0
0
0
0
0
0
0
0
0
0
0
0
0
0
0
0
0
0
0
0
0
0
0
0
0
0
0
0
0
0
0
0
0
0
0
0
0
0
0
0
0
0
0
0
0
0
0
0
0
0
0
0
0
0
0
0
0
0
0
0
0
0
0
0
0
0
0
0
0
0
0
0
0
0
0
0
0
0
0
0
0
0
0
0
0
0
0
0
0
0
0
0
0
0
0
0
0
0
0
0
0
0
0
0
0
0
0
0
0
0
0
0
0
0
0
0
0
0
0
0
0
0
0
0
0
0
0
0
0
0
0
0
0
0
0
0
0
0
0
0
0
0
0
0
0
0
0
0
0
0
0
0
0
0
0
0
0
0
0
0
0
0
0
0
0
0
0
0
0
0
0
0
0
0
0
0
0
0
0
0
0
0
0
0
0
0
0
0
0
0
0
0
0
0
0
129.78276
0
0
0
0
129.78276
129.78276
129.78276
129.78276
0
0
0
0
0
0
0
0
0
0
0
0
0
0
0
0
0
0
0
0
0
0
0
0
0
0
0
0
0
0
0
0
0
0
0
0
0
0
0
129.78276
129.78276
129.78276
0
0
0
0
129.78276
129.78276
129.78276
0
0
129.78276
129.78276
129.78276
129.78276
0
0
0
0
129.78276
129.78276
0
0
0
0
0
0
0
0
0
0
0
0
0
0
0
0
0
0
0
0
0
0
0
0
0
0
129.78276
129.78276
129.78276
129.78276
0
0
0
0
0
129.78276
129.78276
0
129.78276
0
129.78276
0
129.78276
0
129.78276
0
0
129.78276
129.78276
0
129.78276
129.78276
0
0
0
0
0
0
0
0
0
0
0
0
0
0
0
0
129.78276
0
129.78276
129.78276
129.78276
0
0
0
0
0
0
0
0
0
129.78276
129.78276
129.78276
129.78276
129.78276
129.78276
129.78276
129.78276
129.78276
129.78276
129.78276
129.78276
129.78276
129.78276
129.78276
129.78276
0
0
129.78276
129.78276
129.78276
129.78276
129.78276
129.78276
129.78276
129.78276
0
0
129.78276
129.78276
0
0
129.78276
129.78276
0
0
129.78276
129.78276
129.78276
129.78276
129.78276
129.78276
129.78276
129.78276
129.78276
129.78276
129.78276
129.78276
129.78276
129.78276
129.78276
129.78276
129.78276
129.78276
0
0
0
0
129.78276
129.78276
129.78276
129.78276
129.78276
129.78276
129.78276
129.78276
0
0
0
0
0
0
0
0
0
0
0
0
0
0
0
0
0
129.78276
129.78276
129.78276
129.78276
129.78276
129.78276
129.78276
129.78276
129.78276
129.78276
129.78276
129.78276
129.78276
129.78276
129.78276
129.78276
129.78276
129.78276
129.78276
129.78276
129.78276
129.78276
129.78276
129.78276
129.78276
129.78276
129.78276
129.78276
129.78276
129.78276
129.78276
129.78276
129.78276
129.78276
0
0
0
0
0
129.78276
129.78276
129.78276
129.78276
129.78276
129.78276
129.78276
129.78276
129.78276
129.78276
129.78276
129.78276
129.78276
129.78276
129.78276
129.78276
129.78276
129.78276
129.78276
129.78276
129.78276
129.78276
129.78276
129.78276
129.78276
129.78276
129.78276
129.78276
129.78276
129.78276
129.78276
129.78276
129.78276
129.78276
129.78276
129.78276
0
0
0
0
129.78276
129.78276
129.78276
129.78276
129.78276
129.78276
129.78276
129.78276
129.78276
129.78276
129.78276
129.78276
129.78276
129.78276
129.78276
129.78276
129.78276
129.78276
129.78276
129.78276
129.78276
129.78276
129.78276
129.78276
0
0
0
0
129.78276
129.78276
129.78276
129.78276
129.78276
129.78276
129.78276
129.78276
129.78276
129.78276
129.78276
129.78276
129.78276
129.78276
129.78276
129.78276
129.78276
129.78276
129.78276
129.78276
129.78276
129.78276
129.78276
129.78276
0
0
0
0
0
0
0
0
129.78276
129.78276
129.78276
129.78276
129.78276
129.78276
129.78276
129.78276
129.78276
129.78276
0
0
0
0
0
129.78276
0
0
0
0
0
0
0
0
0
0
0
129.78276
129.78276
129.78276
129.78276
129.78276
129.78276
129.78276
129.78276
129.78276
129.78276
0
0
0
0
0
0
0
129.78276
129.78276
129.78276
129.78276
129.78276
129.78276
129.78276
129.78276
129.78276
129.78276
129.78276
129.78276
0
0
0
0
0
0
0
0
129.78276
129.78276
129.78276
129.78276
129.78276
129.78276
129.78276
129.78276
129.78276
129.78276
129.78276
129.78276
0
0
129.78276
129.78276
129.78276
129.78276
129.78276
129.78276
129.78276
129.78276
129.78276
129.78276
129.78276
129.78276
129.78276
129.78276
129.78276
129.78276
0
0
129.78276
129.78276
129.78276
129.78276
129.78276
129.78276
129.78276
129.78276
129.78276
129.78276
129.78276
129.78276
129.78276
129.78276
129.78276
129.78276
0
0
0
0
129.78276
129.78276
129.78276
129.78276
129.78276
129.78276
129.78276
129.78276
129.78276
129.78276
129.78276
129.78276
0
0
0
0
0
0
0
0
0
0
129.78276
129.78276
129.78276
129.78276
129.78276
129.78276
129.78276
129.78276
129.78276
129.78276
129.78276
129.78276
129.78276
129.78276
129.78276
129.78276
129.78276
129.78276
129.78276
129.78276
129.78276
129.78276
129.78276
129.78276
129.78276
129.78276
129.78276
129.78276
129.78276
129.78276
129.78276
129.78276
129.78276
129.78276
129.78276
129.78276
129.78276
129.78276
129.78276
129.78276
0
0
0
0
0
0
0
0
129.78276
129.78276
129.78276
129.78276
129.78276
129.78276
129.78276
129.78276
129.78276
129.78276
129.78276
129.78276
129.78276
129.78276
129.78276
129.78276
0
0
0
0
0
0
0
0
0
0
0
0
0
0
0
0
0
0
)


1042
(
0
0
162.51373
31.403226
0
408.14638
68.531091
162.66913
0
379.4535
0
289.43736
0
0
0
0
210.45026
22.287285
0
137.2482
172.8892
0
25.402282
0
0
164.12455
316.32901
18.62482
20.452966
0
374.97844
0
0
0
0
256.51594
411.8157
411.8157
411.8157
411.8157
33.873989
27.235608
403.81043
27.666368
65.393426
23.692703
0
0
0
0
0
349.32257
411.8157
297.48169
20.661956
216.9341
0
0
0
0
0
0
0
0
0
0
0
0
0
0
0
0
0
0
0
0
0
0
0
0
0
0
0
0
0
0
0
0
0
0
0
0
0
0
0
0
0
0
0
0
0
0
0
0
0
0
0
0
0
0
0
0
0
0
0
0
0
0
0
0
0
0
0
0
0
0
0
0
0
0
0
0
0
0
0
0
0
0
61.054291
61.054291
61.054291
61.054291
61.054291
61.054291
61.054291
61.054291
61.054291
61.054291
61.054291
61.054291
61.054291
61.054291
61.054291
61.054291
61.054291
61.054291
61.054291
61.054291
61.054291
61.054291
61.054291
61.054291
61.054291
61.054291
61.054291
61.054291
61.054291
61.054291
61.054291
60.787132
61.054291
61.054291
0
0
0
0
0
0
0
0
61.054291
61.054291
61.054291
61.054291
61.054291
61.054291
61.054291
61.054291
61.054291
61.054291
61.054291
61.054291
61.054291
61.054291
61.054291
61.054291
0
0
0
0
0
61.054291
61.054291
61.054291
61.054291
61.054291
61.054291
61.054291
61.054291
61.054291
61.054291
61.054291
61.054291
61.054291
61.054291
61.054291
61.054291
0
0
0
0
0
0
0
61.054291
0
61.054291
0
0
0
0
0
0
0
0
0
0
0
0
0
0
0
61.054291
0
0
0
0
0
0
0
0
0
0
0
0
0
0
0
0
0
0
0
0
0
0
0
0
0
0
0
0
0
0
0
0
0
0
0
0
0
0
0
0
0
0
0
0
0
0
0
0
0
0
0
0
0
0
0
0
0
0
0
0
0
0
0
0
0
0
0
0
0
0
0
0
0
0
0
0
0
0
0
0
0
0
0
0
0
0
0
0
0
0
0
0
0
0
0
0
0
0
0
0
0
0
0
0
0
0
0
0
0
0
0
0
0
0
0
0
0
0
0
0
0
0
0
0
0
0
0
0
0
0
0
0
0
0
0
0
0
0
0
0
0
0
0
0
0
0
0
0
0
0
0
0
0
0
0
0
0
0
0
0
0
0
0
0
0
0
0
0
0
0
0
0
0
0
0
0
0
0
0
0
0
0
0
0
0
0
0
0
0
0
0
0
0
0
0
0
0
0
0
0
0
0
0
0
0
61.054291
0
0
0
0
61.054291
61.054291
61.054291
61.054291
0
0
0
0
0
0
0
0
0
0
0
0
0
0
0
0
0
0
0
0
0
0
0
0
0
0
0
0
0
0
0
0
0
0
0
0
0
0
0
61.054291
61.054291
61.054291
0
0
0
0
61.054291
61.054291
61.054291
0
0
61.054291
61.054291
61.054291
61.054291
0
0
0
0
61.054291
61.054291
0
0
0
0
0
0
0
0
0
0
0
0
0
0
0
0
0
0
0
0
0
0
0
0
0
0
61.054291
61.054291
61.054291
61.054291
0
0
0
0
0
61.054291
61.054291
0
61.054291
0
61.054291
0
61.054291
0
61.054291
0
0
61.054291
61.054291
0
61.054291
61.054291
0
0
0
0
0
0
0
0
0
0
0
0
0
0
0
0
61.054291
0
61.054291
61.054291
61.054291
0
0
0
0
0
0
0
0
0
61.054291
61.054291
61.054291
61.054291
61.054291
61.054291
61.054291
61.054291
61.054291
61.054291
61.054291
61.054291
61.054291
61.054291
61.054291
61.054291
0
0
61.054291
61.054291
61.054291
61.054291
61.054291
61.054291
61.054291
61.054291
0
0
61.054291
61.054291
0
0
61.054291
61.054291
0
0
61.054291
61.054291
61.054291
61.054291
61.054291
61.054291
61.054291
61.054291
61.054291
61.054291
61.054291
61.054291
61.054291
61.054291
61.054291
61.054291
61.054291
61.054291
0
0
0
0
61.054291
61.054291
61.054291
61.054291
61.054291
61.054291
61.054291
61.054291
0
0
0
0
0
0
0
0
0
0
0
0
0
0
0
0
0
61.054291
61.054291
61.054291
61.054291
61.054291
61.054291
61.054291
61.054291
61.054291
61.054291
61.054291
61.054291
61.054291
61.054291
61.054291
61.054291
61.054291
61.054291
61.054291
61.054291
61.054291
61.054291
61.054291
61.054291
61.054291
61.054291
61.054291
61.054291
61.054291
61.054291
61.054291
61.054291
61.054291
61.054291
0
0
0
0
0
61.054291
61.054291
61.054291
61.054291
61.054291
61.054291
61.054291
61.054291
61.054291
61.054291
61.054291
61.054291
61.054291
61.054291
61.054291
61.054291
61.054291
61.054291
61.054291
61.054291
61.054291
61.054291
61.054291
61.054291
61.054291
61.054291
61.054291
61.054291
61.054291
61.054291
61.054291
61.054291
61.054291
61.054291
61.054291
61.054291
0
0
0
0
61.054291
61.054291
61.054291
61.054291
61.054291
61.054291
61.054291
61.054291
61.054291
61.054291
61.054291
61.054291
61.054291
61.054291
61.054291
61.054291
61.054291
61.054291
61.054291
61.054291
61.054291
61.054291
61.054291
61.054291
0
0
0
0
61.054291
61.054291
61.054291
61.054291
61.054291
61.054291
61.054291
61.054291
61.054291
61.054291
61.054291
61.054291
61.054291
61.054291
61.054291
61.054291
61.054291
61.054291
61.054291
61.054291
61.054291
61.054291
61.054291
61.054291
0
0
0
0
0
0
0
0
61.054291
61.054291
61.054291
61.054291
61.054291
61.054291
61.054291
61.054291
61.054291
61.054291
0
0
0
0
0
61.054291
0
0
0
0
0
0
0
0
0
0
0
61.054291
61.054291
61.054291
61.054291
61.054291
61.054291
61.054291
61.054291
61.054291
61.054291
0
0
0
0
0
0
0
61.054291
61.054291
61.054291
61.054291
61.054291
61.054291
61.054291
61.054291
61.054291
61.054291
61.054291
61.054291
0
0
0
0
0
0
0
0
61.054291
61.054291
61.054291
61.054291
61.054291
61.054291
61.054291
61.054291
61.054291
61.054291
61.054291
61.054291
0
0
61.054291
61.054291
61.054291
61.054291
61.054291
61.054291
61.054291
61.054291
61.054291
61.054291
61.054291
61.054291
61.054291
61.054291
61.054291
61.054291
0
0
61.054291
61.054291
61.054291
61.054291
61.054291
61.054291
61.054291
61.054291
61.054291
61.054291
61.054291
61.054291
61.054291
61.054291
61.054291
61.054291
0
0
0
0
61.054291
61.054291
61.054291
61.054291
61.054291
61.054291
61.054291
61.054291
61.054291
61.054291
61.054291
61.054291
0
0
0
0
0
0
0
0
0
0
61.054291
61.054291
61.054291
61.054291
61.054291
61.054291
61.054291
61.054291
61.054291
61.054291
61.054291
61.054291
61.054291
61.054291
61.054291
61.054291
61.054291
61.054291
61.054291
61.054291
61.054291
61.054291
61.054291
61.054291
61.054291
61.054291
61.054291
61.054291
61.054291
61.054291
61.054291
61.054291
61.054291
61.054291
61.054291
61.054291
61.054291
61.054291
61.054291
61.054291
0
0
0
0
0
0
0
0
61.054291
61.054291
61.054291
61.054291
61.054291
61.054291
61.054291
61.054291
61.054291
61.054291
61.054291
61.054291
61.054291
61.054291
61.054291
61.054291
0
0
0
0
0
0
0
0
0
0
0
0
0
0
0
0
0
0
)


1042
(
0
0
55.704647
24.569626
229.66915
129.06499
39.026363
0
0
277.98388
118.23932
47.985649
119.49711
0
0
0
284.42858
279.15959
19.877035
88.059047
284.42858
7.7353272
4.7985029
14.341633
9.9054854
284.42858
284.42858
0
2.9574937
0
284.19757
0
51.009637
29.288413
21.124145
284.42858
278.11836
281.18643
284.42858
281.25796
22.719316
0
184.78468
7.9298093
16.36415
5.8041912
18.041704
24.88315
43.716914
0
0
265.01425
284.42858
284.42858
0
27.125593
0
4.480785
0.40098617
0.58745752
0.90078665
0.66702447
0.35281955
0.21501202
0.17295152
1.7246649
1.775343
1.3222125
0.97287318
1.2249974
0.64634495
0.45550156
0.8840143
0.51732176
1.202668
0.83403865
0.95486201
0.75729058
0.56688856
0.30323499
0.35934436
0.25691645
0.30956768
0.26852785
0
2.6849273
1.6523706
2.9203719
2.0838655
1.4836043
1.2989029
1.0507129
1.8659376
1.1346813
0
2.3154896
0
2.8901051
0
13.053587
0
13.053587
0
0
0
0
0
0
0
0.90561751
0.67253976
0.97804183
1.2322155
0.38572861
0.59149252
0
0
0
2.2142835
1.9494402
1.3307497
0
0
0
0
0
0
0
0
0
0
0
0
0
0
0
0
0
0
0
0
0
0
0
0
0
0
0
0
0
0
0
0
0
0
0
0
0
0
0
0
0
0
0
0
0
0
0
0
0
0
0
0.73480477
0.8186694
1.1137561
1.0311123
0.49675986
0.43428632
0.22171739
0.1530871
0
0
0
0
0
0
0
0
0
0
0
0
0
0
0
0
2.6514736
2.7529379
2.2876321
1.4494709
1.6474126
0
0
0
0
0
0
0
0
0
0
0
0
0
0
0
0
0
0
0
0
0
0
0
0
0
0
0
0
0
0
0
0
0
0
0.838451
0.7643553
1.0563673
1.1408447
0.45281821
0.51951456
0
0
0
0
0
2.4933285
1.7121963
1.5066847
0
0
0
0
0
0
0
0
0
0
0
0
0
0
0
0
0
1.0123958
0.80176724
1.0908402
1.4061884
0.482003
0.97402565
0.45001132
0.71493629
0.37950848
3.9917134
13.053587
5.9086008
13.053587
13.053587
13.053587
13.053587
2.5349055
3.691899
2.2939152
1.5864599
13.053587
2.4015121
1.1593959
3.2865966
13.053587
13.053587
13.053587
13.053587
0
0
1.2169583
1.4663281
1.0451359
1.8605024
1.4752594
3.0557216
2.3782158
1.8888656
1.2276162
0.90734526
0.5594204
1.0566169
0
0
0
0
0
3.0659644
13.053587
5.2146701
13.053587
2.9921511
4.4296858
2.4077981
13.053587
13.053587
13.053587
1.9964777
3.7473857
4.0508533
13.053587
2.7225944
1.257492
13.053587
0
0
0
0
0
0
0
0
0
0
0
0
13.053587
13.053587
13.053587
13.053587
13.053587
13.053587
13.053587
13.053587
13.053587
13.053587
13.053587
13.053587
0.63056544
0.40795988
0.81913331
0.8922291
0.30452968
0
0
0
3.2509123
1.842458
2.0995265
1.4102047
1.0622899
2.7298806
5.133003
13.053587
13.053587
13.053587
0
0
0
0
0
0
0
0
0
0
0
0
0
13.053587
13.053587
13.053587
13.053587
0
2.4809594
3.2471538
5.3207217
13.053587
13.053587
13.053587
13.053587
13.053587
13.053587
4.784437
13.053587
13.053587
13.053587
13.053587
4.4775238
13.053587
13.053587
13.053587
13.053587
13.053587
13.053587
13.053587
13.053587
13.053587
13.053587
0
13.053587
13.053587
13.053587
13.053587
13.053587
13.053587
0
0
0
0
0
0
0
0
0
0
0
0
0
0
0
0.93516655
0.8679548
0.5227328
0.6255294
2.8694482
1.7998281
0
0
0
0
0
0
0
0
0
0
0
0
0
0
0
0
0
0
0.66968225
0.72479086
0.88904694
0
3.7678222
4.4551426
13.053587
13.053587
13.053587
13.053587
13.053587
13.053587
2.0885135
1.5985441
0
0
0
0
0
0
0
13.053587
13.053587
13.053587
13.053587
13.053587
13.053587
0
0
0
0
0
0
0
0
0
0
0
0
0
0
0
0
0
0
0
0
0
0
0
0
0
0
0
0
0
0
0
0
0
0
0
0
0
0
0
0
0
0
0
0
0
0
0
0
0
0
0
0
0
0
0
0
0
0
0
0
0
0
0
0
1.1724426
0
0
0
0
0
0
0
0
0
0
0
0
0
0
0
0
0
5.2375706
13.053587
1.425386
1.8770458
3.3933392
13.053587
0
0
0
0
0
0
0
0
0
0
0
0
0
0
0
0
0
0
13.053587
13.053587
13.053587
13.053587
13.053587
13.053587
0
0
0
0
0
0
0
0
0
0
0
0
0
0
0
0
0.54132754
0.72203466
0
0
0
0
0
0
0
0
0
0
0
0
0
0
0
0
0
0
0
0
0
0
0
0
0
0
0
0
0
0
0
0
0
0
0
0
1.6108778
1.2648526
4.095961
13.053587
0
0
0
0
0
0
0
0
0
0
0
0
0
0
0
0
0
0
0
0
0
0
0
0
0
0
0
0
0
0
0
0
0
0
0
0
0
0
0
0
0
0
0
0
0
0
0
0
0
0
0
0
0
0
0
0
0
0
0
0
0
0
0
0
0
0
0
0
0
0
0
0
0
0
0
0
0
0
0
0
0
0
0
0
0
0
0
0
0
0
0
0
0
0
0
0
0
0
0
0
0
0
13.053587
13.053587
0
0
0
0
0
0
0
0
0
0
0
0
0
0
0
0
0
0
0
0
0
0
0
0
13.053587
13.053587
13.053587
13.053587
0
0
0
0
0
0
0
0
0
0
0
0
0
0
0
0
0
0
0
0
0
0
0
0
0
1.1809929
1.2725962
0
0
2.0284835
0
0
0
0
0
0
0
0
0
0
0
0
0
0
0
0
0
0
0
0
0
0
0
0
0
0
0
0
0
0
0
0
0
0
0
0
0
0
0
0
0
0
0
0
0
0
0
0
0
0
0
0
0
0
0
0
0
0
0
0
0
0
0
0
0
0
0
0
0
0
0
0
0
0
0
0
0
0
0.83838652
0.98456541
0
0
0
0
0
0
0
0
0
0
0
0
0
0
0
0
0
0
0
0
0
0
0
0
0
0
0
0
0
0
0
0
0
0
5.504977
13.053587
13.053587
2.4389774
0
0
0
0
0
0
0
0
0
0
0
0
0
0
0
0
0
0
0
0
0
0
0
0
0
0
0
0
0
0
0
0
0
0
0
0
0
0
0
0
0
0
0
0
0
0
0
0
0
0
0
0
0
0
0
0
0
0
0
0
0
0
0
0
0
0
13.053587
13.053587
13.053587
13.053587
0
0
0
0
0
0
0
0
0
0
0
0
0
0
0
0
0
0
0
0
0
0
0
0
0
0
0
0
0
0
0
0
0
0
)

)


// ************************************************************************* //
