/*--------------------------------*- C++ -*----------------------------------*\
  =========                 |
  \\      /  F ield         | OpenFOAM: The Open Source CFD Toolbox
   \\    /   O peration     | Website:  https://openfoam.org
    \\  /    A nd           | Version:  8
     \\/     M anipulation  |
\*---------------------------------------------------------------------------*/
/*   Windows 32 and 64 bit porting by blueCAPE: http://www.bluecape.com.pt   *\
|  Based on Windows porting (2.0.x v4) by Symscape: http://www.symscape.com   |
\*---------------------------------------------------------------------------*/
FoamFile
{
    version     2.0;
    format      ascii;
    class       scalarListList;
    location    "constant/vegetation";
    object      F;
}
// * * * * * * * * * * * * * * * * * * * * * * * * * * * * * * * * * * * * * //


361
(

1497
(
0.00045696991
0.0037534044
0.00013385142
0.00022499889
3.3931468e-05
0.00086651531
7.7798474e-05
4.4465202e-05
0.0011577539
0.00027780902
0.00023706982
0.0031086491
9.965972e-05
5.317318e-05
0.0002300037
0.00071612997
8.5208145e-05
3.9727003e-05
0.00013544824
0.00012587142
2.6670011e-05
0.00010947357
0.00013003425
0.00035192124
0.00047219041
1.2749201e-05
5.8471463e-05
3.375589e-05
4.0801804e-05
1.315074e-05
1.9254225e-05
0.00011562592
0.00019551969
0.00018204067
0.0003016601
0.0028769315
0.00036105231
0.00011749938
0.00032279856
8.5899861e-05
8.1087391e-05
0.00027736589
0.00010903011
0.00045655886
0.00037858898
8.9220549e-05
8.544091e-05
0.00041287289
0.00046683793
0.00012495177
0.00030985785
0.00011862685
0.00034238134
7.4476545e-06
7.5107304e-06
7.6526957e-06
7.6601691e-06
7.6323686e-06
7.5987224e-06
0.00016242373
0.00022768262
7.3775773e-06
7.3027314e-06
0.0002016999
0.00014760123
7.6064779e-06
7.5642171e-06
7.6368113e-06
7.6548294e-06
7.4755505e-06
7.5492827e-06
7.0954537e-06
7.2182754e-06
8.972996e-05
8.8375382e-05
0.00044321519
0.00046226366
7.3531048e-06
7.112893e-06
0.00017297649
0.00012576512
0.00022368788
0.00032983626
0.00016217605
0.00012350233
0.0002424076
0.00034136822
6.1878135e-05
5.3764727e-05
6.3798378e-05
5.2244866e-05
7.155569e-05
8.203645e-05
8.5382756e-05
6.8968539e-05
7.367042e-05
9.1224764e-05
7.6112533e-05
8.8143978e-05
6.0248587e-05
4.9407518e-05
5.0983398e-05
5.8236387e-05
3.7840852e-05
4.5557672e-05
3.8814297e-05
4.4345195e-05
3.1851128e-05
2.6868565e-05
2.7502099e-05
3.1063474e-05
3.2458929e-05
2.8613729e-05
3.3247274e-05
2.7983744e-05
3.7070448e-05
4.2119779e-05
4.3361915e-05
3.6084705e-05
1.2377467e-05
1.4320529e-05
1.2501774e-05
1.4144024e-05
1.0722257e-05
9.8203906e-06
8.8957456e-06
1.0839005e-05
1.0737757e-05
8.9185039e-06
8.8309924e-06
1.0831986e-05
1.2311881e-05
1.3862805e-05
1.402058e-05
1.2274889e-05
1.8428342e-05
1.6385178e-05
1.8744529e-05
1.6139409e-05
2.0790515e-05
2.3346747e-05
2.385903e-05
2.0375441e-05
2.1096311e-05
2.4735106e-05
2.4243068e-05
2.1487515e-05
1.818767e-05
1.5706607e-05
1.5957515e-05
1.7855898e-05
1.9679718e-05
1.6723117e-05
1.8915035e-05
1.746722e-05
2.2234562e-05
2.4359229e-05
2.1429029e-05
2.5197868e-05
1.3889322e-05
1.4788896e-05
1.5545911e-05
1.3073974e-05
1.2433802e-05
9.467676e-06
1.1448564e-05
1.1457811e-05
3.7387707e-05
4.2058899e-05
3.6511278e-05
4.2918142e-05
3.2673686e-05
2.7794051e-05
2.8646996e-05
3.180691e-05
5.7075659e-05
4.8615062e-05
4.9420718e-05
5.6379073e-05
6.6093467e-05
7.6464231e-05
6.5582821e-05
7.6717569e-05
0.00015558617
0.00019973139
0.00016214147
0.00019085059
0.00012316142
9.795929e-05
0.00010233125
0.00011734873
0.00012800774
0.00010981641
0.00010596178
0.00013294944
0.00014892807
0.00016951284
0.00018125644
0.00014092013
0.00029792675
0.00024952955
0.00031418966
0.00023732833
0.0003429
0.00038734053
0.00054213894
0.00027307959
0.00036152644
0.00048819141
0.00037909667
0.00047141681
0.00027693407
0.00020405959
0.00022285993
0.00024346547
0.00012124776
0.00014558261
0.00014180691
0.00012310539
0.00010392787
8.932257e-05
8.9220094e-05
0.00010465664
6.8110772e-06
1.44944e-05
1.2627808e-05
1.2737616e-05
1.463789e-05
9.1952502e-06
9.1533179e-06
1.1100479e-05
1.1151872e-05
9.0144413e-06
9.0934206e-06
1.0936514e-05
1.1028182e-05
1.2824317e-05
1.4831444e-05
1.4746841e-05
1.2885855e-05
1.458282e-05
1.2797055e-05
1.2532546e-05
1.4327512e-05
8.8998195e-06
8.8642542e-06
1.0769792e-05
1.0783529e-05
1.2415334e-05
1.4245607e-05
1.4213038e-05
1.2425761e-05
9.054807e-06
8.8946883e-06
1.1106294e-05
1.0862916e-05
0.00025938149
0.00032694715
0.00033674679
0.00026689283
0.00053953325
0.0005329227
0.00041468505
0.00041967655
0.00034366717
0.00027530616
0.00027214078
0.00034765971
0.00050618757
0.0003940632
0.00052159999
0.00040606209
8.9654592e-06
9.0377116e-06
1.0942735e-05
1.0854089e-05
9.1574145e-06
9.1036108e-06
1.1027048e-05
1.1096988e-05
1.2618145e-05
1.4368476e-05
1.2509651e-05
1.4511276e-05
1.2722849e-05
1.4751751e-05
1.2810304e-05
1.4642021e-05
9.2200851e-06
9.2283304e-06
1.1191769e-05
1.1182219e-05
9.1966659e-06
9.2204169e-06
1.1180529e-05
1.114872e-05
1.2931573e-05
1.4890073e-05
1.2921654e-05
1.4907733e-05
1.2916023e-05
1.4834053e-05
1.4886357e-05
1.2875316e-05
0.00054119752
0.00053787129
0.00041841587
0.00042092233
0.00051669343
0.00052963459
0.00041223033
0.00040252538
0.00034671641
0.00027635474
0.00034867677
0.0002750423
0.00034184845
0.00026576249
0.00027143869
0.00033421273
5.2010547e-06
6.5567675e-06
0.00017431571
0.00023690947
0.00017045643
0.00024358382
4.8056399e-05
4.0889734e-05
4.5609089e-05
5.4007802e-05
3.0027336e-05
3.4976312e-05
3.9193615e-05
3.3227695e-05
5.6790854e-05
6.7496665e-05
7.5997717e-05
6.3503247e-05
9.6668541e-05
8.063222e-05
9.028342e-05
0.00010834066
1.678365e-05
1.933335e-05
2.1941858e-05
1.7063458e-05
1.9512731e-05
1.740717e-05
1.7183739e-05
2.1975529e-05
2.5673241e-05
2.2156437e-05
2.2203091e-05
2.8415775e-05
1.6730023e-05
1.9072754e-05
2.1085031e-05
1.6580873e-05
1.8609697e-05
1.6640851e-05
1.6468483e-05
2.0898442e-05
2.4738684e-05
2.1607434e-05
2.1071548e-05
2.6651033e-05
5.0675885e-05
5.9003405e-05
6.5485191e-05
5.5748334e-05
8.0600768e-05
6.8907761e-05
7.6340319e-05
8.9599476e-05
4.3688e-05
3.780109e-05
4.1290374e-05
4.8154506e-05
2.8569453e-05
3.282764e-05
3.5932899e-05
3.0845127e-05
0.00020897784
0.00016996215
0.00019228029
0.00021558452
0.00011526366
0.00013886754
0.0001393099
0.00012766968
0.00017313658
0.000222705
0.00021916239
0.00019209789
0.00015473545
0.00013018966
0.00014855562
0.00016174529
9.3605357e-05
0.00010964886
0.00011002477
0.00010327597
0.00013686263
0.00017746896
0.00016847475
0.00015661182
1.7674259e-05
2.2443872e-05
1.7721789e-05
2.2659119e-05
1.7626881e-05
1.7696731e-05
2.2628158e-05
2.2539668e-05
1.6991833e-05
2.1484727e-05
1.720267e-05
2.1929173e-05
1.7519156e-05
1.7377598e-05
2.2173791e-05
2.2391619e-05
0.00018810785
0.00016558988
0.00019714327
0.00017402457
0.00021231616
0.0002052746
0.00018036554
0.00018628344
0.00022569652
0.00019545086
0.00022504655
0.00019613686
0.00021808052
0.00022238604
0.00019416034
0.0001907278
0.045801728
0.23009819
0.020842553
0.13080619
0.0084710641
0.013947646
0.082937648
0.0018921977
0.00042950519
0.00060059104
0.0020794878
0.0057234524
0.0054366121
0.001311197
0.00056000952
0.0035376115
0.00040802903
0.0021052892
0.0034157441
0.00057367486
0.00036538
0.00032981118
0.0004764544
0.00018905949
9.6536112e-05
0.00015424223
0.00014290413
0.0002163708
0.00021077245
0.11701689
0.042619357
0.060607944
0.00010458906
0.00014334425
0.00062429861
7.8263195e-05
0.00069808741
0.00071990683
0.00059275875
0.00010640022
0.00066905162
0.00010573277
0.0006340479
0.00064382494
0.0001070369
0.00017897489
0.00011721677
0.00012812142
9.8740078e-05
0.00010959579
0.00013610714
0.00027800766
0.00027661308
0.00025577946
0.00027316825
0.00027530212
0.0002575759
0.00018964763
0.00018961022
0.0002321853
0.00010740316
0.00013544284
0.00017178898
0.00014360192
0.00023079498
0.00024854959
0.00023292416
0.00018202469
0.00022093484
0.00071853346
0.00024617729
0.00026000832
0.0002624296
0.00072509692
0.00026250973
0.00025967578
0.00065790357
0.00023938072
0.00051317669
0.00017572924
0.00014381563
0.00010585399
0.0001458487
0.00013569698
0.00023830482
0.00018497913
0.00022643199
0.0003332577
0.00027910954
0.00033408409
0.00027862557
0.00032942072
0.00033278051
0.00029883872
0.00026255923
0.00030854917
0.00032412691
0.00026842098
0.00031708719
0.00033028025
0.00027088752
0.00032519927
0.00026484237
0.00030943146
0.00031814965
0.00014894766
0.00011536714
0.00012860609
0.00012725648
0.00014456916
0.00013751499
0.00018089429
0.00016196989
0.000171057
0.00015260686
0.00015248028
0.00016156926
0.00028839912
0.00024181864
0.00027786292
0.00026120862
0.00023642785
0.00026819049
0.00019106007
0.00019332211
0.0002017442
0.00022745108
0.00020642418
0.00021366366
0.00051966007
0.00057170878
0.0004880096
0.00064764395
0.00053207323
0.00054218689
0.00053665121
0.00065036702
0.00054286569
0.000251787
0.00024207605
0.00024817996
0.00025640198
0.00025475236
0.00025177974
0.00026377958
0.00025508776
0.00025685108
0.00026379012
0.00025649097
0.00025723138
0.00025518085
0.00025234577
0.00024635995
0.00024723032
0.00021004993
0.00023791284
0.00016524268
0.000189556
0.0001774205
0.00015376398
0.00013936867
0.00016439036
0.00012644083
0.00014899028
0.00012517275
0.00023237652
0.00023450541
0.00020951331
0.00019634743
0.00019861536
0.00019211382
0.00022953545
0.00021144136
0.00023481944
0.00015354139
0.00069795733
0.00019277533
0.00024939714
0.00014764922
0.00010035217
0.00012272906
0.00023851714
0.00023307189
0.00033497585
0.00029978124
0.00024076121
0.00029131715
0.00019769443
0.00017375983
0.0001668243
0.00020879288
0.00023150921
0.00026026136
0.00031215084
0.00023936559
0.00036631513
0.00042190433
0.00024296324
0.00016029963
0.00016474192
0.00017306874
0.00010330735
0.00010877126
0.0001073159
0.00014924501
0.00013397041
0.00013914818
0.00011258422
8.7943793e-05
9.9962178e-05
0.00010582691
0.0001105094
0.00011023672
0.00014927758
0.00010772116
0.00015193035
0.00010789502
0.00014895381
0.00015199675
0.00017718623
0.00020823969
0.00018865705
0.00018495155
0.00022415193
0.00023704046
0.00019403484
0.00039919831
0.00037143146
0.00029542522
0.00031535415
0.00025086464
0.0002148985
0.00020382318
0.00026603474
0.00032451022
0.00034561508
0.00026057467
0.00027705909
0.00010190789
0.00010369897
0.00010554468
0.00012529616
0.00012127519
0.00012979432
9.747199e-05
0.00010186965
0.00010031201
0.00010139365
0.00011365554
0.00010674782
0.0004271235
0.00045382765
0.00035557261
0.00033579043
0.00049938645
0.00047820712
0.00037373882
0.00038956738
0.00029730916
0.0002267343
0.00028184804
0.00023830056
0.00031156949
0.00025817529
0.00032401666
0.00024891365
0.0001055283
0.00011229264
0.00011065757
0.00010664496
0.00010989194
0.00011080928
0.00010753842
0.00011106417
0.00011159649
0.00010730746
0.00011187156
0.00011146988
0.00010783305
0.00011201746
0.00011191839
0.00016870348
0.0001857343
0.00018196463
0.00023090932
0.00022179694
0.00020026752
0.00012476472
0.00014430003
0.00012286296
0.00011646124
0.00013958645
0.00011947387
0.00015824571
0.00016584114
0.00014724177
0.00015247877
0.00012614839
0.00013581469
0.00011420297
0.00011856513
0.00011088441
0.00012509294
0.00013096559
0.00012421613
0.0001261009
0.00015064392
0.0001271236
0.00015145243
0.00012827957
0.00012785174
0.00012701148
0.000150966
0.00012779323
0.00012840181
0.00015163068
0.00012824047
0.0027221577
0.00014791432
0.00025625131
0.0016148173
0.00070418043
0.0012078461
0.0010781618
0.0064939529
0.016135367
0.0073444934
0.0011333091
0.0064102196
0.01018738
0.0046821372
0.00019578995
0.00068005267
0.0016189228
0.00087786523
0.00023346686
6.2061057e-05
4.4343737e-05
6.8283786e-05
0.00073237955
5.5344092e-05
0.0002427276
0.00011579928
9.5193278e-05
0.00030872512
6.9884115e-05
3.8086825e-05
1.7063025e-05
1.9013018e-05
1.6199809e-05
2.6567762e-05
1.9948477e-05
1.4366593e-05
0.0017537855
0.016510289
0.0058523904
0.0052805182
0.0040772397
0.0027377429
6.4975819e-05
6.5243037e-05
6.0556416e-05
1.0387827e-05
1.1854999e-05
1.5298882e-05
1.1849799e-05
1.174319e-05
6.4577996e-05
1.1874394e-05
5.9075446e-05
6.1813564e-05
4.7405879e-05
4.7176078e-05
6.1910128e-05
2.402764e-05
2.3995126e-05
2.3724407e-05
2.3952336e-05
1.1617262e-05
1.2864252e-05
1.4663524e-05
1.7779972e-05
1.3422053e-05
1.5490878e-05
2.3617346e-05
2.3212148e-05
1.8431252e-05
1.7402733e-05
2.0360567e-05
1.1437291e-05
1.1952515e-05
1.1936489e-05
1.19642e-05
1.896902e-05
2.2603752e-05
2.4016431e-05
2.4644787e-05
2.5678226e-05
1.8018602e-05
1.572209e-05
1.2867067e-05
1.5064671e-05
2.1261039e-05
6.5425421e-05
2.1462329e-05
6.5618465e-05
2.1505542e-05
2.149887e-05
1.881031e-05
2.1313446e-05
2.2092624e-05
5.1080868e-05
1.2498413e-05
1.4912702e-05
1.8018506e-05
5.399516e-05
1.5712386e-05
2.4033872e-05
2.4021618e-05
2.3816658e-05
2.3892747e-05
2.3487205e-05
2.3339809e-05
2.0450449e-05
2.0145156e-05
2.1637289e-05
2.154853e-05
2.4553668e-05
2.3122663e-05
2.4056538e-05
2.4218376e-05
1.9466582e-05
1.7187696e-05
1.858864e-05
1.6429162e-05
1.702699e-05
1.7778986e-05
1.4561727e-05
1.3889341e-05
1.526933e-05
1.6339693e-05
1.4478315e-05
1.5754182e-05
5.5285597e-05
5.6632755e-05
5.190532e-05
5.6011916e-05
6.230751e-05
5.7114307e-05
6.247476e-05
5.6061576e-05
5.7260479e-05
2.1474924e-05
2.0216494e-05
1.9171826e-05
2.1343489e-05
2.2013325e-05
2.2111428e-05
2.1410441e-05
2.2230974e-05
2.2175445e-05
2.1529639e-05
2.2149658e-05
2.2289744e-05
2.1522766e-05
2.2267254e-05
2.2285054e-05
1.9925385e-05
1.9749822e-05
1.9057209e-05
2.1320276e-05
2.1872492e-05
1.9994337e-05
2.1370027e-05
2.1664132e-05
2.3036566e-05
1.2257157e-05
1.3672313e-05
1.4838104e-05
1.425165e-05
1.5856054e-05
1.3738415e-05
1.7190304e-05
1.9038525e-05
1.8221251e-05
1.6431883e-05
1.6677381e-05
1.745058e-05
9.5551286e-06
1.327598e-05
6.3845996e-05
1.6021418e-05
1.3436879e-05
1.1413203e-05
2.0890789e-05
2.3152754e-05
1.2275886e-05
1.3474932e-05
2.1158144e-05
6.1774981e-05
2.0411581e-05
5.0936785e-05
1.1639132e-05
4.680929e-05
1.1442175e-05
2.7982712e-05
2.3297896e-05
1.7430854e-05
3.8134124e-05
1.177569e-05
1.6305075e-05
1.6814236e-05
1.72831e-05
1.1985496e-05
1.1611798e-05
1.1684144e-05
1.2066811e-05
1.5517344e-05
1.4632042e-05
1.4820966e-05
1.1845784e-05
1.1769756e-05
1.2284082e-05
4.4913095e-05
5.2523895e-05
4.4818666e-05
1.2267695e-05
5.2383378e-05
1.1494546e-05
1.7550658e-05
2.0143121e-05
1.8538689e-05
1.1819408e-05
1.2323715e-05
1.3013979e-05
1.2510623e-05
1.4009122e-05
1.3579357e-05
1.4180735e-05
1.3420156e-05
1.3367989e-05
1.2052403e-05
1.403277e-05
1.4129572e-05
1.2141067e-05
1.3926167e-05
1.2898058e-05
2.1005842e-05
2.1910146e-05
2.1619062e-05
2.0655792e-05
1.9032848e-05
2.1163981e-05
1.6762977e-05
1.7746174e-05
1.7767855e-05
1.1563715e-05
1.3889237e-05
1.2367625e-05
1.2733071e-05
1.3330124e-05
1.277713e-05
1.17871e-05
1.2311929e-05
1.3819151e-05
1.6070233e-05
1.7032959e-05
1.5344371e-05
1.6316646e-05
1.4035053e-05
1.4674776e-05
1.2004202e-05
1.4551682e-05
1.4229847e-05
1.1958778e-05
1.4530599e-05
1.4172029e-05
0.00015702753
0.00034211467
0.00018165838
0.00015358233
6.7167608e-05
5.201877e-05
6.836829e-05
4.170404e-05
4.0809408e-05
5.1624959e-05
0.00024996106
7.3393832e-05
3.2438532e-05
8.8528902e-05
2.2836355e-05
2.4574927e-05
0.00012097802
0.00011495891
8.2601167e-05
8.5866618e-05
8.5521599e-05
8.0833983e-05
7.3010405e-05
7.5382773e-05
6.6044657e-05
6.3779889e-05
8.517383e-05
8.2633025e-05
9.5869915e-05
9.9637726e-05
8.7029413e-05
8.6616473e-05
8.8517641e-05
8.9640256e-05
8.8084303e-05
8.8159827e-05
8.7909725e-05
8.8070218e-05
7.0712387e-05
7.3400024e-05
9.5030718e-05
7.5858041e-05
7.2674892e-05
8.4731786e-05
8.5153705e-05
5.7869972e-05
5.6360702e-05
8.8344095e-05
8.6950664e-05
8.6170887e-05
8.6234754e-05
8.6002625e-05
8.6154988e-05
5.6199667e-05
7.0305048e-05
7.4206928e-05
5.5083761e-05
5.5920793e-05
5.9773338e-05
5.7731837e-05
6.3016518e-05
6.0139535e-05
7.1599833e-05
7.8581579e-05
9.0447178e-05
9.4839602e-05
7.380679e-05
6.6182308e-05
7.2871729e-05
6.4172555e-05
8.3445489e-05
7.5350249e-05
8.7351059e-05
0.00010497958
7.0359895e-05
7.6680658e-05
6.2187407e-05
9.566697e-05
9.5369634e-05
9.2204874e-05
8.9186583e-05
6.8512943e-05
8.1561782e-05
9.4552371e-05
7.6911347e-05
7.2584717e-05
9.6142726e-05
9.4924829e-05
6.1775275e-05
8.1303972e-05
8.572864e-05
9.6666831e-05
8.1262484e-05
9.9609737e-05
9.6771653e-05
9.7055107e-05
8.1044994e-05
8.1138534e-05
9.6473105e-05
9.702198e-05
8.1118948e-05
6.185888e-05
8.3581275e-05
7.7645205e-05
0.00011697335
7.3631492e-05
8.5783098e-05
9.5839147e-05
7.6330486e-05
7.5665883e-05
7.066369e-05
6.8242924e-05
7.0469405e-05
7.77772e-05
6.2116233e-05
6.8339737e-05
6.0005254e-05
8.0427479e-05
8.797939e-05
7.7836468e-05
8.0186887e-05
9.1970994e-05
9.1448326e-05
9.3832622e-05
0.00015875139
5.9834914e-05
8.8532528e-05
9.5747862e-05
8.7387817e-05
8.6178525e-05
9.5313404e-05
9.6770643e-05
8.8083226e-05
9.1696435e-05
9.7460352e-05
9.6912259e-05
8.8016918e-05
9.7015934e-05
8.8192395e-05
9.6730579e-05
8.7681483e-05
9.6913858e-05
8.8163864e-05
8.688894e-05
7.0128099e-05
6.7717685e-05
7.3292899e-05
7.6682399e-05
7.6739227e-05
6.2641946e-05
8.9996789e-05
6.4701151e-05
9.8828428e-05
7.8333676e-05
7.9232758e-05
7.5611796e-05
7.3063137e-05
8.422587e-05
8.5504675e-05
6.0272191e-05
6.2166563e-05
5.8291875e-05
9.0467933e-05
8.3500886e-05
8.1988079e-05
8.6312979e-05
8.6144288e-05
8.1051423e-05
8.6267154e-05
8.1108181e-05
8.5787118e-05
8.6243101e-05
5.436791e-05
5.5790317e-05
5.737263e-05
6.9588513e-05
7.7665853e-05
7.3454555e-05
5.4500648e-05
8.2236722e-05
5.5338408e-05
9.1903918e-05
6.3640939e-05
5.7467061e-05
6.6124749e-05
5.8349128e-05
0.004808836
0.007042116
0.0026892295
0.00037480781
0.00084413813
0.00039111439
0.0024817099
0.00063311942
0.00042804403
0.0001627981
0.00064540142
8.5909034e-05
0.00011833213
9.9453281e-05
0.00060219733
0.0003567788
9.171228e-05
0.00010896304
0.00016585024
0.0016257426
0.00087163547
0.00092984833
0.00081004599
0.00082490838
0.00035784251
0.00046879412
0.0010571838
0.00087249709
0.0005531757
0.00078762327
0.00010234512
1.0951081e-05
6.3683821e-05
8.5358151e-05
1.2199497e-05
8.8599155e-06
1.0045318e-05
8.7410424e-05
1.1403858e-05
5.2303876e-05
4.4441247e-05
2.3699482e-05
5.1001133e-05
1.221058e-05
8.2085273e-06
7.7754673e-06
7.1807926e-06
7.4278505e-06
3.1178217e-06
3.972845e-06
3.8213798e-06
3.3020748e-06
3.2196909e-06
0.00026337054
2.6190545e-05
2.4490416e-06
9.573924e-06
2.5463483e-06
2.2409248e-05
2.6741562e-05
2.2686182e-05
2.7807623e-06
2.6443065e-06
2.664257e-06
3.0262453e-06
2.7111448e-06
3.1115802e-06
3.103262e-06
3.0111681e-06
8.5651393e-06
4.5466543e-06
3.1603554e-06
3.5855822e-06
3.1891367e-06
3.3868471e-06
3.5167423e-06
3.2780656e-06
9.0451354e-06
9.3637935e-06
2.8881545e-06
3.024374e-06
2.7567985e-06
2.4655363e-06
2.5117704e-06
2.5276767e-06
3.3555635e-05
3.6018271e-06
2.1762127e-05
2.6083572e-06
2.5483997e-05
2.9048146e-06
2.8405208e-06
2.5771472e-06
2.66004e-06
2.5912446e-06
2.7246057e-05
3.0437433e-06
2.8399422e-06
2.536394e-05
2.8520519e-06
2.2823032e-05
2.3448714e-05
2.4429897e-05
2.7494475e-06
2.7385254e-06
2.8257972e-06
2.8954838e-06
3.0668259e-06
2.9214051e-06
2.5349764e-06
2.8509928e-06
2.5979808e-06
2.877074e-06
2.6944331e-06
2.6371213e-06
2.8927772e-06
2.7863493e-06
2.8685438e-06
0.0050395122
0.0042564639
0.007570358
0.0012565308
0.00061250819
0.00011839135
8.6574266e-05
9.883457e-06
2.600575e-05
3.2106156e-05
2.7594281e-05
1.004237e-05
3.6324833e-05
5.5903161e-06
1.0144021e-05
2.4987076e-06
2.9978371e-06
0.00039089011
0.00087417021
0.00061910409
2.321793e-06
2.3318559e-06
2.3189742e-06
2.3046921e-06
2.6810251e-06
2.2219274e-06
2.4005762e-06
2.5490148e-06
2.3364855e-06
2.4547723e-06
2.7198371e-06
2.6201431e-06
2.7858507e-06
2.4665113e-06
2.4628135e-06
8.5566697e-06
2.4025403e-06
2.4577213e-06
2.6846067e-06
2.5765481e-06
2.7742532e-06
2.456807e-06
2.3241266e-06
2.4591421e-06
2.326023e-06
2.4626496e-06
2.4610884e-06
2.4664621e-06
2.4653085e-06
2.4637928e-06
2.4646111e-06
2.454178e-06
2.3145817e-06
2.4514807e-06
2.3088239e-06
2.4491247e-06
2.4492448e-06
2.4695836e-06
2.3526431e-06
2.4781958e-06
2.5529386e-06
2.3892878e-06
2.4998757e-06
2.9525132e-06
2.6678664e-06
2.8896565e-06
2.8301464e-06
2.6374594e-06
2.8465751e-06
3.0250612e-06
2.8566854e-06
3.1033795e-06
2.9301887e-06
3.186854e-06
2.7078731e-06
2.4544341e-06
2.7031925e-06
2.6762233e-06
2.4227859e-06
2.3594879e-06
2.6274229e-06
2.4666657e-06
2.433939e-06
2.6241491e-06
2.8108026e-06
2.4996437e-06
2.517677e-06
2.6056904e-06
2.8088878e-06
2.8437177e-06
2.3895352e-06
8.8130533e-06
2.0552413e-06
2.3046288e-06
2.2926117e-06
2.3470438e-06
3.016134e-06
2.4563838e-06
2.3131472e-06
2.4893735e-06
2.6767073e-06
2.7967515e-06
4.0139823e-06
2.4066905e-06
2.3343472e-06
2.3590445e-06
2.2841416e-06
2.3252065e-06
2.3304857e-06
2.4525394e-06
2.3788881e-06
2.3969581e-06
2.6696145e-06
2.3756112e-06
2.3835708e-06
0.00042454312
0.0006886092
0.0005440074
0.00025471941
0.00140376
0.0009614001
0.0033308043
0.00093387282
0.0017913482
0.00026515721
0.0001978368
0.00041108178
5.7672484e-05
1.4229765e-05
0.00011406622
9.2786809e-05
0.00012216755
0.00013483699
9.3656976e-05
2.5036834e-05
0.00011838119
7.708218e-05
2.7954649e-05
0.00032771007
0.00011309527
0.00011674035
0.00011410641
0.0015942007
0.0037490031
0.00011486312
0.00032584334
5.5363871e-05
5.2909854e-05
0.00025342976
0.0001984256
6.0677991e-05
0.00011540284
0.00025524284
0.00023057324
0.00022168289
0.00017965974
0.00078860188
0.00056508282
0.00098680242
0.00096201764
0.00032086619
0.00038964461
4.6703462e-05
0.00017031808
0.0002601704
0.00016887085
0.00022856746
4.3686972e-05
0.00017316867
0.0019411357
0.00046848456
0.00035107429
0.00036779488
0.00038501947
0.00041720725
0.0013435365
0.0010288183
0.00043723756
)


2211
(
0.0015060728
0.003912554
0.00052995529
0.00087742068
0.00013283298
0.002251305
0.00028530293
0.00017420325
0.0014767037
0.00069260308
0.0008561444
0.003241331
0.00039616937
0.00020667411
0.00074608112
0.0014236149
0.0003258858
0.00014904329
0.00040527804
0.00035540431
0.0001041669
0.00034212738
0.00045232384
0.00066762177
0.00074105368
4.9479881e-05
0.00019324473
0.00012415699
0.00014568283
5.098085e-05
7.4265356e-05
0.00030144624
0.00045658743
0.00036034887
0.00045902456
0.019061056
0.00087498347
0.00026792586
0.00065671375
0.00019621549
0.00029861581
0.0013442126
0.00043019666
0.00083822753
0.0019019192
0.00022477194
0.00028853855
0.001722529
0.0010505898
0.00031818797
0.0012813925
0.00042357248
0.00082806505
2.1056778e-05
2.065384e-05
1.7606672e-05
1.8172703e-05
1.7026928e-05
1.643632e-05
0.00036441838
0.00049316056
2.1428785e-05
2.1772727e-05
0.00092060825
0.00062706875
1.9747075e-05
2.0217111e-05
1.9246989e-05
1.8720889e-05
1.5204045e-05
1.5833227e-05
2.2228483e-05
2.2070779e-05
0.00024982898
0.00027153855
0.0015147647
0.0012830994
1.4505536e-05
1.3614589e-05
0.00044110756
0.00035928843
0.00089096409
0.0011469703
0.00061314101
0.00039539451
0.00060937528
0.00099051283
9.3893287e-05
9.1160775e-05
0.00010375404
8.2979683e-05
9.6009182e-05
9.6286607e-05
0.00010720175
8.672602e-05
0.00010591946
0.00013301257
0.00011775219
0.00011897094
8.5604753e-05
6.9494139e-05
7.6084652e-05
7.776383e-05
6.4490532e-05
7.9961724e-05
7.0087729e-05
7.319016e-05
5.2895838e-05
4.360788e-05
4.6823231e-05
4.9044278e-05
5.6808839e-05
5.3864939e-05
6.1437616e-05
5.0058446e-05
5.9759034e-05
6.1952573e-05
6.7472222e-05
5.514594e-05
2.3576944e-05
2.8192034e-05
2.4669449e-05
2.6821145e-05
1.9821457e-05
1.7659513e-05
1.6496573e-05
1.9400624e-05
2.0512363e-05
1.7610935e-05
1.6894824e-05
2.1394125e-05
2.2651325e-05
2.4439669e-05
2.5626285e-05
2.1825602e-05
3.4423376e-05
3.2125419e-05
3.6526672e-05
3.0409491e-05
3.6751864e-05
3.878251e-05
4.1467282e-05
3.4510739e-05
3.8966437e-05
4.7250836e-05
4.4144592e-05
4.1515695e-05
3.2596464e-05
2.7395128e-05
2.8916153e-05
3.0734599e-05
8.1271796e-05
6.3885466e-05
7.5373801e-05
6.8989238e-05
9.6232363e-05
0.00010628535
8.9261949e-05
0.00011456032
5.0520986e-05
5.4278762e-05
5.8858008e-05
4.6202212e-05
4.354797e-05
3.1244474e-05
3.8696812e-05
3.9073201e-05
0.00019956054
0.00022480569
0.00018513758
0.00024244631
0.00016500305
0.00012728203
0.00013712153
0.00015315693
0.00036140454
0.00027396849
0.00029564491
0.00033470002
0.00044211176
0.00049919975
0.00040917527
0.00053999662
0.00016296183
0.00020525386
0.00018525398
0.00017947547
0.00013136131
0.00010629809
0.00011904242
0.0001165625
0.00014756812
0.00014934673
0.00013290323
0.00016673556
0.00014406855
0.00013698492
0.00015732049
0.00012685789
0.00021795832
0.00022761435
0.00025121757
0.0001979787
0.00020281258
0.00018780492
0.00027566772
0.00015330512
0.00023044498
0.00029438028
0.00026384027
0.00026051896
0.00018758893
0.00014677606
0.00017172274
0.00015484783
0.00094516857
0.0010321877
0.0011129
0.00087324036
0.00079214413
0.00060604845
0.00065657985
0.00073079318
2.1838511e-05
2.9641002e-05
2.5826715e-05
2.7011804e-05
3.1110174e-05
2.0663722e-05
1.9911407e-05
2.4284848e-05
2.5251971e-05
1.8379778e-05
1.9149389e-05
2.2343063e-05
2.331239e-05
2.8206012e-05
3.4075549e-05
3.258354e-05
2.9398616e-05
5.1855874e-05
4.3911009e-05
4.1723881e-05
4.9323214e-05
2.6423466e-05
2.7057064e-05
3.3761546e-05
3.2821374e-05
4.0078942e-05
4.5872041e-05
4.7339405e-05
3.8866554e-05
2.9142514e-05
2.7890222e-05
3.6854289e-05
3.5047672e-05
0.00026111522
0.00028870442
0.00033139287
0.00029894301
0.00051001537
0.00044454463
0.00039963041
0.0004580688
0.00037987752
0.00038942699
0.00034155012
0.00043447727
0.00033682877
0.00030284447
0.00038688719
0.00034797942
2.5869935e-05
2.5324885e-05
3.1319445e-05
3.2049084e-05
2.414706e-05
2.4754063e-05
3.0568509e-05
2.9774608e-05
3.6959439e-05
4.4691016e-05
3.788149e-05
4.3555413e-05
3.60165e-05
4.1125702e-05
3.50223e-05
4.2371542e-05
2.140345e-05
2.2126552e-05
2.7144901e-05
2.6207395e-05
2.3503779e-05
2.2828418e-05
2.8056972e-05
2.8935926e-05
3.174333e-05
3.5575019e-05
3.058074e-05
3.7035648e-05
3.2877628e-05
3.9814663e-05
3.8447089e-05
3.3973708e-05
0.00058341007
0.00066452732
0.00059521052
0.00052335278
0.00084683479
0.00075271898
0.00067293019
0.00075532807
0.00056173556
0.00044259323
0.00049521179
0.0005003264
0.00063329574
0.00062633581
0.00056187171
0.00070871032
9.3919447e-06
1.2183869e-05
0.00050811054
0.00081323552
0.00056745776
0.00071582465
9.0022382e-05
7.8478901e-05
9.3659031e-05
0.00010869232
5.962829e-05
6.8430442e-05
8.1632873e-05
6.9966852e-05
0.00010321969
0.00011820081
0.00014445619
0.0001247506
0.00015319917
0.00013495631
0.00016517989
0.00018840491
3.4271386e-05
3.9346941e-05
4.675767e-05
3.6309875e-05
4.3439077e-05
4.0252327e-05
3.8115371e-05
5.1155715e-05
5.1546345e-05
4.48419e-05
4.7162523e-05
6.0230214e-05
6.1780631e-05
7.3288993e-05
7.8058288e-05
5.9137816e-05
6.6322878e-05
5.5264448e-05
5.6695444e-05
7.1774635e-05
0.00010345971
8.6553294e-05
8.1092695e-05
0.00010650243
0.00026830407
0.00032745492
0.00033769755
0.00027536154
0.00048647427
0.00039974449
0.00040853488
0.00049640935
0.00022040207
0.00018168132
0.000186959
0.00022814665
0.00012494626
0.0001504163
0.0001560275
0.00012818445
0.00023676152
0.0002136405
0.0002697941
0.00027124804
0.00017113988
0.00019092675
0.00021203541
0.00020960856
0.00026915643
0.00035116171
0.00030793846
0.00033447269
0.00098884265
0.00083803454
0.00086249844
0.00092949076
0.00058368667
0.00069937586
0.00063818643
0.00058693828
0.00071993211
0.00082110681
0.0008694468
0.00074487864
4.2612475e-05
5.4548767e-05
4.4554152e-05
5.7707942e-05
4.8150804e-05
4.6384384e-05
6.0184613e-05
6.2792327e-05
5.4382616e-05
7.1028427e-05
5.2990495e-05
6.9464898e-05
4.9848406e-05
5.146921e-05
6.7423288e-05
6.5089781e-05
0.00077823703
0.00071276396
0.00072669649
0.00067017573
0.00061617173
0.00067223689
0.00062437912
0.00057353586
0.00040087769
0.00037926105
0.00045151659
0.00042868591
0.00055992883
0.00050467293
0.00047452876
0.00052566341
0.050442531
0.057784679
0.017886354
0.024150798
0.0098299599
0.010319722
0.015724514
0.0029734561
0.00082352347
0.00096090249
0.0030533941
0.0048746545
0.0043095501
0.002352785
0.00097733566
0.0048738424
0.00073044924
0.0025839825
0.0042199103
0.0008054787
0.00062385736
0.00061110459
0.00073805711
0.00033730115
0.00018847596
0.00028925497
0.00027116099
0.00035051143
0.00036159747
0.03033381
0.17567347
0.14267062
5.2617225e-05
4.9504903e-05
0.00010830427
9.3886897e-05
0.00012570738
6.3706872e-05
5.6633312e-05
7.192795e-05
8.1891708e-05
5.1128213e-05
5.3070031e-05
0.00032565614
3.0240178e-05
0.00064119615
0.00043765714
0.00054345951
7.0650807e-05
0.00069788858
5.353329e-05
0.0005247394
0.00037681404
6.8862062e-05
7.7378804e-05
4.4779517e-05
5.5464804e-05
4.2096871e-05
4.2110076e-05
5.8840698e-05
0.00017055076
0.00022987071
0.00031635221
0.0002513599
0.00015320373
0.00010943032
8.1430759e-05
6.353788e-05
9.4199372e-05
8.0154583e-05
0.00011782462
0.00019488828
0.00013246567
0.00043359488
0.00033726854
0.0004068265
0.00022409133
0.0003670188
0.00030374836
0.00030789453
0.00027374875
0.00057711744
0.000279832
0.00022718909
0.00015971061
0.00050685515
0.00020949401
0.00014479699
0.00030753149
0.00010456153
0.00042280901
0.00018974579
0.00012768057
7.6823866e-05
0.00010971453
0.00011391836
0.00029421838
0.00021579333
0.0003513964
0.00014691989
0.00025020121
0.00026807663
0.00027649905
0.00020479625
0.0001892185
0.00022977299
0.00020906239
0.00028523215
0.00025668106
0.00040618728
0.00029498057
0.00037608377
0.0003150093
0.00027318513
0.00034549262
0.00018191964
0.00013719179
0.00016121379
0.00012256221
0.00012627708
0.00014267598
0.00011463645
9.0358847e-05
0.00010407162
0.00010482578
0.00013029666
0.00011714926
0.00021512778
0.00017049949
0.00018809964
0.0001461859
0.00014985081
0.0001653457
0.00043536265
0.00035858866
0.00046359811
0.00052305438
0.00038144672
0.00049177999
0.00020363074
0.00017305906
0.00024752819
0.00026034308
0.00028709466
0.00040239984
0.00030698619
0.00033718046
0.00026505797
0.00026804823
0.00022658565
0.00019108824
0.00047912103
0.00040212114
0.00037259156
0.00030216019
0.00042816782
0.00033788418
0.00029654824
0.0003523212
0.00028705965
0.00034029794
0.00025383144
0.0002627462
0.00025389283
0.00024058279
0.00024505669
0.00021090777
0.00022638128
0.00017555168
0.00015299336