/*--------------------------------*- C++ -*----------------------------------*\
  =========                 |
  \\      /  F ield         | OpenFOAM: The Open Source CFD Toolbox
   \\    /   O peration     | Website:  https://openfoam.org
    \\  /    A nd           | Version:  8
     \\/     M anipulation  |
\*---------------------------------------------------------------------------*/
/*   Windows 32 and 64 bit porting by blueCAPE: http://www.bluecape.com.pt   *\
|  Based on Windows porting (2.0.x v4) by Symscape: http://www.symscape.com   |
\*---------------------------------------------------------------------------*/
FoamFile
{
    version     2.0;
    format      ascii;
    class       polyBoundaryMesh;
    location    "constant/air/polyMesh";
    object      boundary;
}
// * * * * * * * * * * * * * * * * * * * * * * * * * * * * * * * * * * * * * //

13
(
    left
    {
        type            patch;
        nFaces          0;
        startFace       6788;
    }
    right
    {
        type            patch;
        nFaces          0;
        startFace       6788;
    }
    back
    {
        type            patch;
        nFaces          0;
        startFace       6788;
    }
    front
    {
        type            patch;
        nFaces          23;
        startFace       6788;
    }
    bottom
    {
        type            wall;
        inGroups        List<word> 1(wall);
        nFaces          174;
        startFace       6811;
    }
    top
    {
        type            patch;
        nFaces          0;
        startFace       6985;
    }
    tower
    {
        type            mappedWall;
        inGroups        List<word> 
2
(
wall
mappedPatch
)
;
        nFaces          159;
        startFace       6985;
        sampleMode      nearestPatchFace;
        sampleRegion    tower;
        samplePatch     buildings_to_air;
    }
    procBoundary17to10
    {
        type            processor;
        inGroups        List<word> 1(processor);
        nFaces          112;
        startFace       7144;
        matchTolerance  0.0001;
        myProcNo        17;
        neighbProcNo    10;
    }
    procBoundary17to11
    {
        type            processor;
        inGroups        List<word> 1(processor);
        nFaces          3;
        startFace       7256;
        matchTolerance  0.0001;
        myProcNo        17;
        neighbProcNo    11;
    }
    procBoundary17to12
    {
        type            processor;
        inGroups        List<word> 1(processor);
        nFaces          14;
        startFace       7259;
        matchTolerance  0.0001;
        myProcNo        17;
        neighbProcNo    12;
    }
    procBoundary17to16
    {
        type            processor;
        inGroups        List<word> 1(processor);
        nFaces          135;
        startFace       7273;
        matchTolerance  0.0001;
        myProcNo        17;
        neighbProcNo    16;
    }
    procBoundary17to18
    {
        type            processor;
        inGroups        List<word> 1(processor);
        nFaces          120;
        startFace       7408;
        matchTolerance  0.0001;
        myProcNo        17;
        neighbProcNo    18;
    }
    procBoundary17to19
    {
        type            processor;
        inGroups        List<word> 1(processor);
        nFaces          111;
        startFace       7528;
        matchTolerance  0.0001;
        myProcNo        17;
        neighbProcNo    19;
    }
)

// ************************************************************************* //
