/*--------------------------------*- C++ -*----------------------------------*\
  =========                 |
  \\      /  F ield         | OpenFOAM: The Open Source CFD Toolbox
   \\    /   O peration     | Website:  https://openfoam.org
    \\  /    A nd           | Version:  8
     \\/     M anipulation  |
\*---------------------------------------------------------------------------*/
/*   Windows 32 and 64 bit porting by blueCAPE: http://www.bluecape.com.pt   *\
|  Based on Windows porting (2.0.x v4) by Symscape: http://www.symscape.com   |
\*---------------------------------------------------------------------------*/
FoamFile
{
    version     2.0;
    format      ascii;
    class       volScalarField;
    location    "0/tower";
    object      pc;
}
// * * * * * * * * * * * * * * * * * * * * * * * * * * * * * * * * * * * * * //

dimensions      [1 -1 -2 0 0 0 0];

internalField   uniform -10000000;

boundaryField
{
    buildings_to_air
    {
        type            compressible::CFDHAMsolidMoistureCoupledImpermeable;
        value           uniform -10000000;
    }
    interior
    {
        type            zeroGradient;
    }
    procBoundary19to10
    {
        type            processor;
        value           uniform -10000000;
    }
    procBoundary19to11
    {
        type            processor;
        value           uniform -10000000;
    }
    procBoundary19to15
    {
        type            processor;
        value           uniform -10000000;
    }
    procBoundary19to16
    {
        type            processor;
        value           uniform -10000000;
    }
    procBoundary19to17
    {
        type            processor;
        value           uniform -10000000;
    }
    procBoundary19to18
    {
        type            processor;
        value           uniform -10000000;
    }
}


// ************************************************************************* //
