/*--------------------------------*- C++ -*----------------------------------*\
  =========                 |
  \\      /  F ield         | OpenFOAM: The Open Source CFD Toolbox
   \\    /   O peration     | Website:  https://openfoam.org
    \\  /    A nd           | Version:  8
     \\/     M anipulation  |
\*---------------------------------------------------------------------------*/
/*   Windows 32 and 64 bit porting by blueCAPE: http://www.bluecape.com.pt   *\
|  Based on Windows porting (2.0.x v4) by Symscape: http://www.symscape.com   |
\*---------------------------------------------------------------------------*/
FoamFile
{
    version     2.0;
    format      ascii;
    class       scalarListList;
    location    "constant/vegetation";
    object      F;
}
// * * * * * * * * * * * * * * * * * * * * * * * * * * * * * * * * * * * * * //


393
(

1782
(
4.6831603e-31
0.00037800752
0.0001505786
0.0080233521
0.0011172716
0.0006253652
0.00022715726
0.00016494295
0.0014843723
4.9403137e-05
6.3063676e-05
0.00038950078
0.00010334218
0.0016682687
0.00041999859
0.00016124072
8.2932697e-05
0.00040522101
0.00013119251
6.4201315e-05
4.6619262e-05
0.00032002986
6.7461533e-05
0.00016557316
3.6499658e-05
3.1257731e-05
0.00027339076
5.2316414e-05
8.5943752e-05
7.1527806e-05
0.00017831982
0.00015896067
3.1710306e-05
3.6688354e-05
2.1222042e-05
1.8557256e-05
0.0016390578
0.0013882873
0.00022914244
9.7173633e-05
0.00030552852
0.00031171469
0.0001010082
0.00023530542
7.3922513e-05
7.7063993e-05
0.0003169873
0.00031802148
7.8991314e-05
7.7618484e-05
0.00024639266
0.0001065261
0.00024881702
0.00010463835
0.00024282419
0.00024493374
0.00025027697
0.00025052408
0.00024931949
0.00024746061
0.00017098626
0.00012840518
0.00024047997
0.00023793991
0.00013310007
0.00017654718
0.00024826342
0.00024675779
0.00024942639
0.00025020489
0.00023979383
0.00024443083
0.00023096412
0.00023504224
0.00032270786
0.00032279033
7.9748698e-05
7.9332795e-05
0.00023271356
0.00022123857
0.00018454813
0.00025197336
0.00014087639
0.0001078217
0.00018713002
0.00025261083
0.00013857187
0.00010724565
3.0016976e-05
3.5299338e-05
3.0767034e-05
3.4411843e-05
2.5830475e-05
2.2241467e-05
2.2732227e-05
2.5249229e-05
2.6291016e-05
2.3649356e-05
2.6927143e-05
2.3118148e-05
2.9464218e-05
3.2917725e-05
3.3746858e-05
2.877199e-05
4.5819524e-05
4.0673571e-05
4.7076903e-05
3.9618685e-05
5.2052659e-05
5.8925131e-05
6.0714998e-05
5.0586953e-05
5.3239867e-05
6.394412e-05
5.4746147e-05
6.2165051e-05
4.4844853e-05
3.7817081e-05
3.8814731e-05
4.3638625e-05
0.00017001077
0.00014758468
0.00017423309
0.00014374753
0.0001945502
0.00023493382
0.00021352926
0.00019306926
0.0001980436
0.00022005885
0.00021478212
0.0002027079
0.00016622481
0.00013586321
0.00014013511
0.00016242022
0.00010190137
0.00012445552
0.00010481704
0.00012103658
8.3851095e-05
6.8978572e-05
7.1173484e-05
8.1153715e-05
8.6032762e-05
7.5015636e-05
7.2952443e-05
8.8466853e-05
9.9242116e-05
0.00011396123
0.00011786162
9.595137e-05
0.00012384381
0.00013953544
0.00011825644
0.00014635333
0.00010521572
8.5711407e-05
0.0001004611
8.9770219e-05
0.00020684685
0.00016469716
0.00017360358
0.00019410258
0.00024661171
0.0002441076
0.00030157645
0.00022583311
5.7191145e-05
4.7284014e-05
5.4553625e-05
4.9611475e-05
6.6190128e-05
7.3463712e-05
7.6921318e-05
6.3191642e-05
3.7760948e-05
4.114091e-05
4.3202709e-05
3.5929327e-05
3.3122675e-05
2.7686827e-05
3.1491138e-05
2.9155705e-05
1.6161192e-05
1.4858308e-05
1.6484134e-05
1.456624e-05
1.7819986e-05
1.9663382e-05
2.0083991e-05
1.7447162e-05
1.8104322e-05
2.08452e-05
2.04104e-05
1.8470031e-05
1.5896874e-05
1.390038e-05
1.4292013e-05
1.5539784e-05
1.2287297e-05
1.3575886e-05
1.2505654e-05
1.3310829e-05
1.1084935e-05
1.0183343e-05
1.3044278e-05
9.5809239e-06
1.105939e-05
1.0701254e-05
1.1146849e-05
1.0759525e-05
1.1977971e-05
1.2493367e-05
1.3000421e-05
1.120134e-05
2.0321003e-05
1.7304424e-05
1.8192946e-05
1.9278388e-05
2.2827999e-05
2.4418702e-05
2.5751745e-05
2.1634184e-05
0.00022207565
0.00026813777
0.00015108508
0.00017808955
0.00018130806
0.00015397627
0.00023401747
0.00023210762
0.00021354536
0.0002154638
0.00022515655
0.00022919603
0.00020713108
0.00021078299
0.00018381244
0.00015801051
0.00015623878
0.00018563037
0.00016186409
0.00018942224
0.00018505051
0.00015848488
0.00022728587
0.00022646154
0.0002106426
0.00021066743
0.00018291594
0.00015648619
0.00015667766
0.00018267855
0.00023196371
0.0002273931
0.00021800777
0.00021275927
1.3799573e-05
1.2681954e-05
1.2836427e-05
1.3986803e-05
1.1059035e-05
1.0967301e-05
1.1494868e-05
1.159618e-05
1.297344e-05
1.4291653e-05
1.4146133e-05
1.3093431e-05
1.0767965e-05
1.1261222e-05
1.0866853e-05
1.1381384e-05
0.00022888242
0.00023065441
0.00021330938
0.00021180915
0.00023365162
0.00023228904
0.00021474301
0.00021592081
0.000184727
0.00015728294
0.00018352112
0.00015831246
0.00018588848
0.00015992386
0.00018681286
0.00015922652
0.00023508816
0.00023547345
0.00021719021
0.00021664126
0.00023467407
0.00023530319
0.00021720461
0.00021676108
0.00018747897
0.00015933267
0.00018682803
0.00016011114
0.00018765624
0.0001603308
0.00016040523
0.00018741784
1.1138819e-05
1.1205596e-05
1.1756097e-05
1.1683412e-05
1.1298517e-05
1.1258876e-05
1.1813895e-05
1.1856582e-05
1.3281048e-05
1.4422988e-05
1.3196103e-05
1.4525934e-05
1.3348221e-05
1.4657085e-05
1.4601754e-05
1.3397729e-05
0.00015680646
0.00020015208
0.00018972061
0.00014321974
0.00019047868
0.00014251981
4.2931814e-05
4.972489e-05
5.5991987e-05
4.8091851e-05
6.7494862e-05
5.7841604e-05
6.4779177e-05
7.5506586e-05
3.7236312e-05
3.2433387e-05
3.6277967e-05
4.1907995e-05
2.4857048e-05
2.8360538e-05
3.1854259e-05
2.7598836e-05
0.00012869368
0.00010889005
0.0001227215
0.00013182232
0.00011035208
0.00013595551
0.00013361714
0.00012293894
7.83236e-05
9.1772637e-05
9.1753653e-05
8.6587407e-05
0.00013877585
0.00011814492
0.00012775954
0.00013667757
0.00011239706
0.00013548968
0.00013496785
0.000123319
8.5870807e-05
0.00010010957
9.5768382e-05
9.0608638e-05
4.1587317e-05
3.6292178e-05
3.8684477e-05
4.4600075e-05
2.7886545e-05
3.1781312e-05
3.4010719e-05
2.9508193e-05
4.7829828e-05
5.5227779e-05
5.9281115e-05
5.1071895e-05
7.4350977e-05
6.4001005e-05
6.8361443e-05
7.9349053e-05
1.5269966e-05
1.7046022e-05
1.9382064e-05
1.5573518e-05
2.1676306e-05
1.9085943e-05
1.9180741e-05
2.4057845e-05
1.7295572e-05
1.6013884e-05
1.574047e-05
1.9542197e-05
1.7158561e-05
1.9180777e-05
2.0889958e-05
1.6824995e-05
2.4348455e-05
2.1464027e-05
2.0602355e-05
2.5748403e-05
1.8191578e-05
1.6506234e-05
1.6522631e-05
2.0152083e-05
0.00013855557
0.00012584776
0.00013954811
0.00012764022
0.00014000571
0.00013995983
0.00012813394
0.0001283656
0.0001374712
0.00012556012
0.00013848105
0.00012714949
0.00013975232
0.00013924104
0.0001277824
0.00012823148
1.6669128e-05
2.0476323e-05
1.6700522e-05
2.065258e-05
1.6686655e-05
1.6704911e-05
2.0667904e-05
2.0655617e-05
1.6343949e-05
2.0063005e-05
1.6489916e-05
2.0392423e-05
1.6646871e-05
1.6582929e-05
2.0511675e-05
2.0608835e-05
0.0033817172
0.00049390536
0.00023034895
0.00023956669
0.00010902715
9.6837827e-05
0.0014557256
0.0035121618
0.00059325537
1.5026454e-05
1.5696833e-05
1.6441125e-05
1.4340331e-05
1.3677301e-05
1.2314076e-05
1.8696782e-05
1.2724924e-05
1.5440689e-05
1.409065e-05
1.3765919e-05
1.5073271e-05
1.1317927e-05
1.1329002e-05
1.1959785e-05
1.1904848e-05
1.3560576e-05
1.4720928e-05
1.4826597e-05
1.3470068e-05
1.1659802e-05
1.1406841e-05
1.2391574e-05
1.2107535e-05
1.1327459e-05
1.1336738e-05
1.1899065e-05
1.1895691e-05
1.1324455e-05
1.133686e-05
1.1897638e-05
1.1884301e-05
1.3446546e-05
1.4704473e-05
1.3446646e-05
1.4709942e-05
1.3444409e-05
1.4692061e-05
1.3429455e-05
1.4708235e-05
0.0027463772
0.00084321839
0.00078686838
0.00035208524
0.0013389812
0.057806843
0.31129368
0.0098203432
0.065761954
0.0019985733
0.0080873402
0.011579229
0.10681017
0.0041329104
0.0065207683
0.001402647
0.00045388395
0.00039872824
0.00050789688
0.0028605066
0.00042299584
0.0010849567
0.00024143415
0.0001961059
0.00021778283
0.0001732189
0.00021915964
0.049323379
0.12321364
0.0071008678
0.024597389
0.011392448
0.000623476
0.0011811127
0.00091949972
0.0012934742
0.00057670043
0.0011950739
0.0010924651
0.00065823613
0.0012426521
0.00092218472
0.0012339294
0.0011465045
0.00013560735
8.180679e-05
0.00017216048
0.00037589849
0.00037626641
0.00036849321
0.00037186333
0.00035165173
0.00034355689
0.00016230645
0.00012495734
0.00014968276
0.00010684019
9.6995579e-05
0.00011864007
0.00036968279
0.00036670016
0.00020945116
0.00018514308
0.00023075391
0.00011161808
0.00045069762
0.00082469177
0.00068483381
0.00086677735
0.00015568807
0.00020141403
0.00076422209
0.00010520145
0.00012776357
0.00068378274
0.00083426861
0.00086041488
0.00014451419
0.00022351875
0.00011812376
0.00010867474
0.00031495768
0.00031646142
0.0002392753
0.00023889067
0.00015369855
0.00014652555
0.00027876005
0.00024437677
0.00034123656
0.00023193886
0.0002346293
0.00021661902
0.00021743055
0.0001272488
0.00014638876
0.00014755213
0.00013925587
0.00020410291
0.00023651847
0.00012382661
0.00014329292
0.00016475142
0.00017805668
0.00010140268
9.6099412e-05
0.00010193983
0.00011746349
0.00011214622
0.0008134607
0.00014272219
0.00013100226
0.00081980174
0.00013825112
0.00015961394
0.00022793148
0.00027765172
0.00012184227
9.8597071e-05
0.00016296304
0.00034195712
0.00034181955
0.00032944579
0.00034013376
0.00023861419
0.00029464026
0.00032390084
0.00030322405
0.00019889669
0.00015768617
0.00011021609
0.00014781059
0.00034120104
0.00033592625
0.0002176226
0.00030301998
0.00032701846
0.00030255846
0.00030142845
0.00018966915
0.0001590115
0.00030642668
0.00021133809
0.00031918424
0.00028952144
0.00029968912
0.00028437669
0.00027876004
0.000127753
0.00011241804
0.00015442542
0.00014706643
7.0497942e-05
0.00015927498
0.00037461935
0.00034258128
0.0003426283
0.00037571494
0.00036406704
0.00033397354
0.00037425207
0.00033752552
0.00035848171
0.00031752683
0.00031063988
0.00033437866
0.00017624384
0.00018299508
0.00011519757
0.0001693147
0.00013835718
0.00010846466
0.00012201775
0.00010631101
0.00013775269
0.00012832228
0.00037248177
0.00034039065
0.00033892811
0.00036473604
0.00019172961
0.00024051854
0.00019352699
0.00026942472
0.00025690815
0.00011748101
0.00010154065
0.00013294208
0.00017708671
0.00036386101
0.00029190273
0.0001237248
0.00011307145
0.00012386041
0.00011232629
0.00011897093
0.00012300089
0.00016854134
0.00015252149
0.00018348491
0.00019279661
0.00010030425
9.6258741e-05
9.4504144e-05
0.00011969467
0.00011765038
0.00010150313
0.00012769139
0.00011458257
0.00012733753
0.0001277324
0.00011086502
0.00012134924
0.00012349278
0.00014126031
0.00013488011
0.00020966125
0.00024871831
0.00011299148
0.0001265705
9.6772642e-05
0.00011129367
0.00033962292
0.00026758661
0.0002837216
0.00032475061
0.00030253882
0.00023600601
0.00030240281
0.0002383444
0.00017442718
0.00016727505
0.00016413553
0.00016037241
0.00031592731
0.00024169841
0.00024334756
0.00018717871
0.00032267325
0.00028267346
0.00029373907
0.00022802247
0.00029713318
0.0002368581
0.00027892936
0.00022417404
0.00024494442
0.00027664372
0.00011598297
0.00012660008
0.00014481339
0.00018830443
0.00010648402
0.00011383319
0.00011536429
0.00011352239
0.00012633481
0.00012697132
0.00011129606
0.00012548956
0.00012443233
0.0001599774
0.00013141602
0.00012565003
0.00013528176
0.00017774728
0.00020887777
0.00029289346
0.00026702797
0.00013168482
0.00012686188
0.00013801913
0.00015104229
0.00012690029
0.00011391811
0.00012484444
0.00012583991
0.00011492129
0.00012383518
0.00013486034
0.00012485306
0.00013411095
0.00012434309
0.00013286815
0.00013357691
0.00012817323
0.00012061846
0.00012953493
0.00013195253
0.00012186139
0.00013081702
0.0043316061
0.0071639806
0.012725838
0.0041984618
0.00087006532
0.0021072458
0.00041046338
0.00038124142
0.00027664492
9.3852194e-05
0.00031351578
0.00038070936
5.1777926e-05
0.00034135164
3.4595457e-05
2.4826016e-05
4.7173597e-05
5.379934e-05
4.2330832e-05
3.8017753e-05
3.0229784e-05
2.2065386e-05
1.8491382e-05
1.5379072e-05
0.0032871888
0.0025825296
0.0017385898
0.0015168056
0.00075156664
7.1936184e-05
6.5167989e-05
5.6890046e-05
6.9544028e-05
1.1284963e-05
6.4449319e-05
7.7312632e-06
9.7746527e-06
1.3903845e-05
1.1563961e-05
1.5155121e-05
9.4061451e-06
8.1556099e-06
9.7803216e-06
1.1594392e-05
9.3246802e-06
1.1052982e-05
6.3425188e-05
5.6597707e-05
1.5490398e-05
4.010353e-05
3.8666268e-05
6.9821518e-05
4.1997634e-05
7.0336883e-05
4.4523904e-05
4.4283736e-05
1.6719478e-05
1.7231233e-05
1.1210605e-05
1.1524883e-05
1.8216424e-05
1.8203466e-05
1.8003976e-05
1.8075982e-05
1.7719204e-05
1.7636233e-05
1.830984e-05
1.6852042e-05
1.8333481e-05
1.0836552e-05
1.0322165e-05
1.1130308e-05
1.5512251e-05
1.5337264e-05
1.5123566e-05
1.6385313e-05
1.5982102e-05
1.0506694e-05
1.5502993e-05
1.5395785e-05
1.5281756e-05
9.5409091e-06
9.9141646e-06
1.0045532e-05
9.44462e-06
9.4709973e-06
1.029143e-05
1.236508e-05
1.2306373e-05
1.4190769e-05
6.5269225e-05
1.2253708e-05
5.593833e-05
6.5896239e-06
6.6169746e-06
1.2709955e-05
2.0437561e-05
2.0376932e-05
1.3493008e-05
2.2636869e-05
1.946756e-05
9.1494356e-06
9.3700999e-06
9.4536414e-06
2.042749e-05
2.0531219e-05
2.0069565e-05
2.032334e-05
1.9954236e-05
1.9551958e-05
1.6297323e-05
1.7600788e-05
1.8152563e-05
9.1275421e-06
9.3356086e-06
9.4051624e-06
2.0731082e-05
1.4783163e-05
1.8762125e-05
9.9898112e-06
1.1519534e-05
1.3776649e-05
1.1899733e-05
5.1384299e-06
1.0257302e-05
1.1872991e-05
1.9116894e-05
1.2493218e-05
1.906585e-05
1.2464021e-05
1.8786968e-05
1.9018594e-05
1.8680899e-05
1.428066e-05
1.8298438e-05
1.9109601e-05
1.5305981e-05
1.9048213e-05
1.0763172e-05
1.3769466e-05
1.1861993e-05
6.7749346e-06
1.0252685e-05
2.0434294e-05
2.0414221e-05
3.7700655e-05
6.1383879e-05
2.0414449e-05
2.0425944e-05
2.0169563e-05
2.0254193e-05
1.9824654e-05
1.9685414e-05
1.2954212e-05
1.6090364e-05
1.0473678e-05
1.7654071e-05
1.7017746e-05
8.8165081e-06
1.0842372e-05
8.5121587e-06
1.1207784e-05
1.0145938e-05
1.221302e-05
1.2990056e-05
8.9021917e-06
1.2377053e-05
1.0570917e-05
9.7787822e-06
1.128094e-05
9.3162955e-06
6.1138263e-06
7.1336523e-05
1.3188346e-05
1.1768866e-05
5.6882514e-05
9.413338e-06
2.0151963e-05
1.9547229e-05
9.3410892e-06
6.5267777e-06
2.6025325e-05
4.1157465e-05
5.8627872e-05
9.7904004e-06
1.040308e-05
1.058555e-05
9.044067e-06
9.3251192e-06
9.4157851e-06
9.4728886e-06
1.5015198e-05
1.4404715e-05
8.3100639e-06
8.4124129e-06
8.8636863e-06
1.3525502e-05
1.2871942e-05
1.2800753e-05
8.4536893e-06
9.1940107e-06
9.4045288e-06
9.4572382e-06
1.59167e-05
1.7526452e-05
1.7956699e-05
1.7462605e-05
1.0637895e-05
1.0812709e-05
1.0305629e-05
1.1204255e-05
1.1654213e-05
1.3853816e-05
1.9113973e-05
1.8228368e-05
1.9097551e-05
1.8175665e-05
1.8878869e-05
1.7918336e-05
1.8956081e-05
1.8133504e-05
1.8562242e-05
1.7819318e-05
1.8433729e-05
1.7566538e-05
1.9096862e-05
1.8260024e-05
1.6796034e-05
1.8329291e-05
1.9080871e-05
1.8243808e-05
1.2498768e-05
1.3691806e-05
1.1898387e-05
1.1697172e-05
1.0848842e-05
1.1255042e-05
1.0929568e-05
1.2300396e-05
1.1676901e-05
1.2191291e-05
9.4690744e-06
1.0657818e-05
9.0202723e-06
1.0374168e-05
1.306773e-05
1.5542444e-05
1.251432e-05
1.2381223e-05
1.5268456e-05
1.5185818e-05
1.2036925e-05
1.5800828e-05
1.4787182e-05
1.4656964e-05
1.6109673e-05
9.6544257e-06
9.8679703e-06
1.2496204e-05
1.5477887e-05
1.2424239e-05
1.5443021e-05
1.5752614e-05
1.230631e-05
9.947504e-06
1.2541114e-05
1.073496e-05
1.0570622e-05
1.0584387e-05
1.070056e-05
1.3244018e-05
1.0568365e-05
1.2030785e-05
9.8240307e-06
1.0788466e-05
1.1258077e-05
9.2368332e-06
8.3572623e-06
8.7009821e-06
8.171346e-06
8.9448238e-06
4.6541673e-06
8.1164157e-06
7.4192956e-06
4.4953107e-06
0.0084037321
0.0044661271
0.00018878874
8.0219217e-05
0.00046227518
0.0022052495
0.00012800808
8.6515918e-05
0.0007043538
0.00032403574
0.002412355
0.00013854619
0.00073618089
0.00010073647
0.00010120121
0.00016080586
0.00012039309
0.00036637582
0.00010626247
6.1729361e-05
5.5863572e-05
3.9494454e-05
3.7069775e-05
4.9696194e-05
9.1927498e-05
2.5840073e-05
2.5608157e-05
0.010542028
0.0044255755
7.7365191e-05
7.7210961e-05
7.6829445e-05
7.7413235e-05
7.3664912e-05
7.1400716e-05
7.1796911e-05
7.3277382e-05
9.9683794e-05
0.00010172287
9.261648e-05
9.0125322e-05
8.104262e-05
8.0939492e-05
8.2431163e-05
8.4268138e-05
7.8822393e-05
7.8291244e-05
8.0079022e-05
8.0379924e-05
8.1667253e-05
8.1556916e-05
8.5269455e-05
8.3260259e-05
7.8916791e-05
7.9445177e-05
7.5450891e-05
7.5952075e-05
8.1473556e-05
7.9368739e-05
7.5995391e-05
7.8003694e-05
7.7899791e-05
7.5896661e-05
8.0697839e-05
8.0998519e-05
7.5144351e-05
7.7113567e-05
7.7389401e-05
7.5408795e-05
7.752574e-05
7.9577417e-05
7.0064489e-05
6.9870404e-05
4.7673278e-05
6.5969436e-05
7.7187513e-05
8.1391177e-05
7.1860999e-05
7.6187651e-05
7.0070968e-05
6.9728244e-05
6.8912541e-05
6.9709054e-05
6.8544137e-05
6.6974609e-05
7.5947358e-05
6.883434e-05
7.4467241e-05
6.7934635e-05
9.0801416e-05
8.5509027e-05
8.9007957e-05
8.2240779e-05
7.9841674e-05
7.5778342e-05
7.5475288e-05
8.1232531e-05
8.081892e-05
8.7759568e-05
7.5992883e-05
8.1664351e-05
8.0312939e-05
7.7779883e-05
7.4051518e-05
7.248384e-05
7.9343308e-05
7.6556966e-05
7.8098868e-05
8.6255251e-05
7.442783e-05
8.0364285e-05
7.9814087e-05
7.2240219e-05
7.748051e-05
7.0041768e-05
6.998045e-05
7.4032908e-05
7.9936442e-05
7.9533089e-05
7.3670775e-05
7.4447706e-05
7.5302612e-05
7.9754663e-05
8.0639269e-05
7.8499891e-05
7.9358926e-05
7.7794133e-05
7.6647413e-05
7.2558636e-05
7.8732044e-05
7.7170225e-05
7.1457928e-05
7.6448372e-05
7.7783822e-05
7.0081108e-05
7.0052293e-05
6.922963e-05
6.9495369e-05
6.8120095e-05
6.7620636e-05
7.4285952e-05
7.5342305e-05
7.0759835e-05
7.2410695e-05
7.5006112e-05
7.2646515e-05
9.2070658e-05
9.7360618e-05
9.1897811e-05
0.00010616335
8.6889743e-05
9.5034367e-05
8.4606102e-05
8.7587549e-05
8.5022639e-05
5.9364194e-05
6.4008949e-05
7.7048717e-05
7.5682334e-05
8.1189314e-05
7.5596462e-05
8.0807451e-05
7.1858642e-05
7.6537847e-05
8.1548241e-05
8.7490294e-05
7.7762559e-05
7.3596037e-05
7.9298804e-05
7.7720639e-05
7.3074798e-05
7.4788345e-05
7.9718334e-05
7.5073757e-05
8.0622409e-05
8.1834874e-05
8.1058928e-05
8.1423445e-05
8.0949221e-05
8.8491378e-05
8.4694135e-05
8.2692904e-05
8.2252276e-05
7.8351316e-05
7.835104e-05
7.8874622e-05
7.9920978e-05
7.4893119e-05
7.7126301e-05
7.764102e-05
7.6396168e-05
8.4292577e-05
8.3330174e-05
8.2102581e-05
7.7156791e-05
7.4893911e-05
7.6155528e-05
7.3877653e-05
7.8170133e-05
7.9766137e-05
7.9659542e-05
7.7777913e-05
7.3782402e-05
7.5779536e-05
8.0338681e-05
8.0107997e-05
8.1239947e-05
8.0402808e-05
7.6782873e-05
7.884335e-05
7.912957e-05
7.761023e-05
7.5619542e-05
7.1709367e-05
7.6561634e-05
7.5364548e-05
8.1379856e-05
7.8587325e-05
7.3149192e-05
0.00033622547
0.0008188106
0.00025433187
0.00088160035
0.0013648
0.0027024617
7.9855639e-05
8.2441195e-05
6.9598579e-05
7.2460149e-05
6.9455519e-05
6.7050688e-05
7.0693376e-05
6.717107e-05
7.2413735e-05
6.9581576e-05
9.0018786e-05
7.4958429e-05
7.7276534e-05
7.7420699e-05
6.6862034e-05
7.2597838e-05
6.9874962e-05
7.507528e-05
6.9511502e-05
6.6715595e-05
6.3994719e-05
6.981605e-05
9.1221836e-05
6.6344855e-05
0.00023656543
0.00045955161
0.001049143
0.00077190768
0.00017949103
0.00014643488
0.00030624603
5.55599e-06
5.2106145e-05
1.1257163e-05
5.4466359e-05
3.3499228e-05
1.13916e-05
6.088395e-05
7.3662635e-05
8.3855536e-06
1.2314752e-05
4.3969565e-06
1.546194e-05
3.4378534e-05
2.0060977e-05
1.9970586e-05
2.1136486e-05
1.7484356e-05
3.4573784e-05
1.7573006e-05
2.1839883e-05
2.1741906e-05
1.7801053e-05
1.8209921e-05
1.810249e-05
1.8090583e-05
2.0325206e-05
2.2780832e-05
2.5915238e-05
2.2665058e-05
2.2880768e-05
1.8273061e-05
2.1802319e-05
1.9637157e-05
2.1830879e-05
8.372459e-05
8.1309201e-05
2.5804751e-05
2.0540941e-05
2.2919666e-05
2.287954e-05
1.5305839e-05
1.7490702e-05
2.0573135e-05
2.6274175e-05
2.6519338e-05
2.6421925e-05
2.0559688e-05
2.6502804e-05
1.7745973e-05
1.763567e-05
2.1712515e-05
1.9454894e-05
1.9355584e-05
1.7828928e-05
1.7841398e-05
1.7476647e-05
2.1360877e-05
1.8968918e-05
1.9484103e-05
2.1746109e-05
1.9387394e-05
1.9987462e-05
2.2696152e-05
2.5962417e-05
2.314502e-05
2.2926114e-05
1.7561628e-05
9.2381372e-06
2.6378423e-05
2.0682996e-05
2.2977547e-05
1.6489077e-05
2.0295573e-05
2.2687437e-05
2.2274602e-05
1.7456517e-05
2.194634e-05
2.1898782e-05
1.7537327e-05
2.2013633e-05
2.193762e-05
2.0238999e-05
2.2254141e-05
2.2206e-05
2.2854626e-05
2.2789311e-05
2.2718025e-05
2.163491e-05
2.2421909e-05
2.2301585e-05
2.2521732e-05
2.274007e-05
2.2636105e-05
2.1676358e-05
2.2157581e-05
2.2262136e-05
2.0931024e-05
2.2532773e-05
2.2730461e-05
2.0862517e-05
2.2448918e-05
2.2658116e-05
2.0619578e-05
2.2561872e-05
2.2599181e-05
2.0578897e-05
2.2547171e-05
2.2555137e-05
1.6971689e-05
1.8446575e-05
1.8387214e-05
1.7555358e-05
2.3109637e-05
2.319409e-05
2.2940793e-05
2.3762569e-05
2.6099043e-05
2.3673795e-05
2.3150992e-05
2.5598082e-05
2.3357928e-05
2.5328091e-05
2.3152443e-05
2.3208739e-05
2.3533342e-05
2.3133182e-05
2.3290317e-05
1.9868196e-05
2.3854832e-05
2.6508675e-05
2.3914488e-05
2.3881318e-05
2.6515527e-05
2.39022e-05
2.3814652e-05
2.6462106e-05
2.3847779e-05
2.6482618e-05
2.3865838e-05
2.3856472e-05
1.8128992e-05
1.8093728e-05
0.00018291377
2.9916307e-05
8.8992841e-05
2.6947918e-05
0.00029585283
0.00051072664
0.00043159314
2.8208545e-05
0.00038925563
0.00062006109
0.0057234401
0.0027936326
0.00047466558
0.00077524441
0.00014611848
0.0003805837
0.0002179858
5.3524118e-05
0.00018513596
0.00019124208
0.00017264062
4.9716086e-05
4.8873885e-05
2.5292047e-05
3.0653572e-05
8.2199355e-06
8.9037967e-06
6.3788236e-06
6.2585794e-06
7.4955697e-06
8.5727256e-06
6.5588167e-06
3.3532819e-06
2.8344321e-06
3.6033543e-06
0.00042968436
0.00080649279
0.00015040063
0.00047045143
0.0002986557
9.4074287e-06
6.2407833e-06
1.0487667e-05
9.2571624e-06
9.9031907e-06
9.3495542e-06
6.2014613e-06
6.8598497e-06
9.9350228e-06
1.1568964e-05
9.9936149e-06
1.040488e-05
1.4096077e-06
1.5248379e-06
1.5866317e-06
1.9182055e-06
1.9184375e-06
1.913645e-06
1.9155692e-06
1.9046079e-06
1.9009841e-06
1.9157935e-06
1.9192014e-06
1.6891765e-06
1.3701405e-06
1.6782247e-06
1.8023395e-06
1.5663099e-06
1.8541551e-06
2.0666614e-06
1.6904804e-06
2.0537965e-06
6.3959355e-07
2.5071556e-06
1.9415542e-06
6.8822402e-06
2.0533462e-06
9.1823919e-06
1.0365468e-05
2.3549901e-06
2.4095876e-06
1.9407826e-06
6.9638441e-06
2.117139e-06
2.0039705e-06
1.9249786e-06
2.3801996e-06
2.3758775e-06
1.6024203e-06
1.601161e-06
1.9181119e-06
1.9030875e-06
2.3948056e-06
1.6541803e-06
1.7505418e-06
1.5992576e-06
1.600654e-06
1.5724587e-06
1.6181127e-06
2.4087935e-06
2.4744511e-06
1.8957937e-06
1.9733398e-06
1.8862163e-06
1.979783e-06
2.4314292e-06
2.4159855e-06
1.9815201e-06
2.0310968e-06
2.5726641e-06
2.1171846e-06
2.1275867e-06
1.6125632e-06
1.8744844e-06
2.0029399e-06
2.4494784e-06
2.4394925e-06
1.5965305e-06
2.2014613e-06
1.1461063e-05
2.1216032e-06
1.9098974e-06
1.9086737e-06
1.9018132e-06
1.9078035e-06
1.7819692e-06
1.9109745e-06
1.8988423e-06
1.904405e-06
2.2715732e-06
2.334157e-06
2.7736041e-06
1.9145945e-06
1.9404252e-06
1.9225718e-06
1.9569829e-06
1.9169986e-06
1.9564585e-06
2.1573139e-06
2.3542291e-06
2.2633666e-06
1.8551398e-06
1.85086e-06
1.8885192e-06
1.8449572e-06
2.0314743e-06
1.844827e-06
2.1537219e-06
1.8444074e-06
1.8499145e-06
1.8415232e-06
1.9439227e-06
1.446737e-06
1.9421389e-06
2.381929e-06
2.3416177e-06
1.485126e-06
1.5229853e-06
1.9173374e-06
1.9089481e-06
1.9090591e-06
1.9180034e-06
1.9112072e-06
1.9043254e-06
1.917024e-06
1.9063554e-06
1.9081697e-06
1.8969424e-06
1.8986062e-06
1.8989414e-06
1.9161524e-06
1.9237229e-06
1.9338706e-06
1.9334923e-06
1.7174536e-06
1.911069e-06
1.2990965e-06
1.9279529e-06
1.6883861e-06
1.7565185e-06
2.0068228e-06
1.6109404e-06
2.072637e-06
1.9138876e-06
2.3404832e-06
2.3419838e-06
1.659606e-06
2.3642214e-06
1.9846458e-06
1.8993074e-06
2.3543345e-06
2.2380936e-06
1.0791974e-06
1.9623485e-06
1.732663e-06
1.0423156e-05
1.8822993e-06
2.3695798e-06
1.0993965e-05
1.8970657e-06
2.3680252e-06
1.0966068e-05
1.8952485e-06
1.1057056e-05
1.8956331e-06
1.9631623e-06
1.9381359e-06
2.0018262e-06
2.084154e-06
2.2953305e-06
2.3866429e-06
2.1124813e-06
2.3782344e-06
2.3751455e-06
2.1252596e-06
2.4001148e-06
1.9053105e-06
1.944452e-06
2.3874469e-06
2.385978e-06
2.3920007e-06
2.3801221e-06
2.3738339e-06
2.3847132e-06
2.1402955e-06
2.1959584e-06
2.2864018e-06
1.8869388e-06
1.9113943e-06
1.9028616e-06
2.3370122e-06
2.2915869e-06
2.3432456e-06
2.3778607e-06
1.8514082e-06
1.5834465e-06
1.8515151e-06
1.6030017e-06
1.964462e-06
1.6315929e-06
1.908764e-06
1.6285132e-06
2.0288321e-06
1.9954657e-06
1.8920949e-06
1.6124694e-06
1.9882861e-06
2.1467963e-06
1.8465365e-06
1.5948775e-06
1.8484551e-06
1.6019549e-06
1.8423905e-06
1.5937678e-06
1.8993761e-06
1.8723753e-06
2.442648e-06
2.4113618e-06
2.4636202e-06
2.8133926e-06
2.4230626e-06
2.3812992e-06
2.3677428e-06
2.3696246e-06
2.3790428e-06
2.3815848e-06
2.3650635e-06
2.3776307e-06
2.3772747e-06
1.8374893e-06
1.8831834e-06
2.3685263e-06
1.9996438e-06
1.8393612e-06
1.6374444e-06
1.7318889e-06
2.1395176e-06
2.3183102e-06
2.4321258e-06
2.3245661e-06
2.2726693e-06
2.265519e-06
1.8735732e-06
2.2660095e-06
2.3644935e-06
1.9193403e-06
2.2861079e-06
2.2680018e-06
1.9000597e-06
2.2546732e-06
1.8961294e-06
2.247063e-06
2.2498119e-06
2.2532896e-06
1.8955337e-06
2.2474897e-06
2.2457134e-06
1.8949398e-06
2.2454075e-06
0.00069702602
0.00071262928
0.00063486727
0.0006853225
0.00031854748
0.00043685329
0.00014771746
0.00030859807
0.00014662021
0.00044600908
8.9573073e-05
0.00017167766
0.0011423225
0.0010805544
0.00038213136
0.00022669482
0.0012034559
0.0021827313
0.001155663
0.00028461696
)


1520
(
0.0014064491
0.00048471579
0.02375687
0.0045098519
0.0018722462
0.00075915511
0.00056777341
0.0040442139
0.00014525356
0.00020116564
0.0014208062
0.00031453286
0.0065531893
0.0014177781
0.00054827274
0.00026157104
0.0013708792
0.00043645116
0.00020868458
0.00014843691
0.0010278841
0.00021789745
0.00055300572
0.00011141586
9.3888656e-05
0.00070907875
0.00016898536
0.00028055925
0.000233655
0.00051164312
0.00049325075
9.8996616e-05
0.00011330469
6.396522e-05
5.4352221e-05
0.0061024997
0.011131948
0.00072030231
0.00027288168
0.00098498102
0.0014968507
0.00037219114
0.0010726823
0.00019949703
0.00026494217
0.0011107991
0.0014116572
0.00026018106
0.00022058149
0.00083524196
0.00037341616
0.0010551387
0.00031069473
0.00094491822
0.0009244112
0.00074081727
0.00078026837
0.00069769614
0.00065125451
0.00051907998
0.00037512226
0.00096387132
0.00098182337
0.00052791423
0.00075323248
0.00087635304
0.00090173026
0.00084786512
0.00081592198
0.00055029044
0.00060198496
0.0010098768
0.00099837593
0.0012260296
0.0013261058
0.00025054515
0.00023721088
0.00049597324
0.00043692416
0.0006000931
0.00092123212
0.00052749464
0.00035820768
0.00074790126
0.00099499432
0.00043071504
0.00033700065
7.4740274e-05
9.200317e-05
7.9173154e-05
8.6607972e-05
6.1638767e-05
5.1017168e-05
5.3697862e-05
5.8402653e-05
6.471981e-05
5.9236353e-05
6.8376121e-05
5.6234764e-05
7.0981354e-05
7.72262e-05
8.2006501e-05
6.7057244e-05
0.00011746216
0.00010729163
0.00012555247
0.0001006968
0.00012878695
0.00013953019
0.00015048066
0.00011993426
0.00013743389
0.00017346165
0.00014740239
0.00016122411
0.00011048207
8.9192645e-05
9.5039521e-05
0.00010330137
0.00040373134
0.00038745866
0.0004424018
0.00035438697
0.0004083623
0.00042442535
0.00041882589
0.0003766246
0.000446922
0.00050220888
0.0004550159
0.00049105131
0.00036872374
0.00029462058
0.00032407543
0.00033638411
0.00026182606
0.00033384334
0.00028454746
0.00030611052
0.00020622161
0.0001625413
0.00017611561
0.00018939588
0.00022289349
0.00020444473
0.00018950057
0.00024128184
0.00024114875
0.00025562385
0.00028077333
0.00022041104
0.00074768326
0.0008029146
0.00067994495
0.00088427368
0.00062560115
0.0004741598
0.00056960299
0.00051964033
0.0011862847
0.00093368425
0.0010318847
0.0010650469
0.0013365967
0.0011874859
0.0015121399
0.0011768133
0.00029282383
0.0002233036
0.00026939555
0.00024216726
0.00035469939
0.00039333076
0.00042972792
0.00032555379
0.00016725472
0.0001856168
0.00020087345
0.00015484648
0.00013987187
0.00010911001
0.00012971446
0.00011752916
3.7857871e-05
3.5159937e-05
3.9575573e-05
3.367944e-05
4.1191983e-05
4.4700383e-05
4.6940056e-05
3.9288515e-05
4.2956481e-05
5.1488868e-05
4.9041296e-05
4.4981472e-05
3.6332386e-05
3.068094e-05
3.2287105e-05
3.4650146e-05
2.7649467e-05
3.165519e-05
2.8722345e-05
3.0368299e-05
2.4125906e-05
2.1463301e-05
2.795959e-05
2.0479854e-05
2.4539906e-05
2.3831406e-05
2.5214611e-05
2.3530185e-05
2.640889e-05
2.7288619e-05
2.9020475e-05
2.4205611e-05
7.1965263e-05
5.7954372e-05
6.1924219e-05
6.709865e-05
8.4261035e-05
9.2190127e-05
9.924821e-05
7.8363641e-05
0.00099897184
0.0011568749
0.00042168317
0.00048255878
0.00052287401
0.00045582255
0.0006957884
0.00065003879
0.00062944754
0.00067289331
0.00055209619
0.00060183906
0.00053742041
0.00058399081
0.00056236115
0.0005216958
0.00048920808
0.00060032156
0.00087716779
0.00099648068
0.00093515476
0.00082281521
0.00097249699
0.00099999978
0.0009837201
0.00095077265
0.00088974258
0.00075040025
0.00078108193
0.00085653477
0.0010923908
0.0010366636
0.0010938121
0.0010291558
3.2883891e-05
2.972804e-05
3.0707279e-05
3.4058453e-05
2.6443286e-05
2.5769666e-05
2.7531233e-05
2.8297311e-05
3.1666115e-05
3.6317536e-05
3.5192938e-05
3.2601737e-05
2.441655e-05
2.5966927e-05
2.5085624e-05
2.6749263e-05
0.00094886086
0.00092583844
0.00089950882
0.00092414497
0.00087515976
0.00090159498
0.00087440332
0.00084759605
0.00080612083
0.00072624908
0.00083008902
0.00070417913
0.0007822078
0.0006593292
0.00075712134
0.00068212465
0.00073847893
0.0007777679
0.00075166684
0.00071374125
0.00084594315
0.00081355823
0.00078654585
0.0008184453
0.00066995533
0.00055296022
0.00063628004
0.0005823008
0.00070126099
0.00063526334
0.00060963696
0.00073025109
2.7096417e-05
2.7723735e-05
2.9754465e-05
2.9039872e-05
2.8884788e-05
2.8321036e-05
3.0436727e-05
3.1082378e-05
3.4384168e-05
3.742774e-05
3.3509477e-05
3.8481999e-05
3.52213e-05
4.0424954e-05
3.9477173e-05