/*--------------------------------*- C++ -*----------------------------------*\
  =========                 |
  \\      /  F ield         | OpenFOAM: The Open Source CFD Toolbox
   \\    /   O peration     | Website:  https://openfoam.org
    \\  /    A nd           | Version:  8
     \\/     M anipulation  |
\*---------------------------------------------------------------------------*/
/*   Windows 32 and 64 bit porting by blueCAPE: http://www.bluecape.com.pt   *\
|  Based on Windows porting (2.0.x v4) by Symscape: http://www.symscape.com   |
\*---------------------------------------------------------------------------*/
FoamFile
{
    version     2.0;
    format      ascii;
    class       scalarListList;
    location    "constant/vegetation";
    object      sunViewCoeff;
}
// * * * * * * * * * * * * * * * * * * * * * * * * * * * * * * * * * * * * * //


5
(

393
(
0
0
0
0
717.08284
717.08284
717.08284
717.08284
717.08284
717.08284
717.08284
717.08284
717.08284
717.08284
717.08284
717.08284
717.08284
717.08284
717.08284
717.08284
717.08284
717.08284
717.08284
717.08284
0
0
0
0
0
222.06862
222.06862
222.06862
222.06862
222.06862
222.06862
222.06862
717.08284
717.08284
717.08284
717.08284
222.06862
717.08284
717.08284
717.08284
717.08284
717.08325
717.08791
717.08284
717.07718
717.08249
222.06862
222.06862
222.06862
222.06862
222.06862
717.08284
222.06862
717.08284
222.06862
717.08284
717.08248
717.08284
717.08278
717.08284
717.08284
717.08284
717.08284
717.08284
717.08284
717.08284
717.08284
717.08284
717.08284
222.06862
222.06862
222.06862
222.06862
222.06862
222.06862
222.06862
222.06862
717.08284
222.06862
222.06862
222.06862
717.08284
222.06862
222.06862
222.07733
222.06862
222.05651
717.08286
222.07069
717.08284
717.08284
218.89589
717.22126
222.46067
222.06862
222.06862
222.06862
222.06862
222.06862
222.06862
222.06862
222.06862
717.08284
717.08284
717.08651
717.13401
222.06862
222.06862
222.06862
222.06862
222.06862
717.08284
717.08284
717.08284
717.08284
222.06862
222.06862
222.06862
222.06862
717.08284
717.08284
716.94114
717.08011
717.08184
717.08194
222.06862
222.06862
222.06862
222.06862
222.06862
222.06862
222.06862
222.06862
222.06862
222.06862
222.06862
222.06862
222.06862
717.08282
717.08251
717.08284
717.08284
717.08272
717.08284
717.08284
717.08284
717.08284
717.08284
717.08284
717.08284
717.08284
717.08284
717.08284
717.08284
717.08284
717.08284
717.08284
717.08284
222.06862
222.06862
222.06862
222.06862
222.06862
222.06862
717.08284
717.08284
717.08284
717.08284
717.08284
717.08284
717.08284
717.08284
717.08284
717.08284
222.06862
222.06862
222.06862
222.06862
222.06862
222.06862
222.06862
222.06862
222.06862
222.06862
222.06862
222.06862
222.06862
222.06862
222.06862
222.06862
222.06862
222.06862
222.06862
222.06862
222.06862
222.06862
222.06862
222.06862
222.06862
222.06862
222.06862
222.06862
222.06862
222.06862
222.06862
222.09957
222.06862
222.1113
222.24595
222.06862
222.06862
222.06862
222.06862
222.06862
222.06862
222.07889
222.06862
222.06862
222.06862
222.06862
222.06862
222.06862
222.06862
222.06862
222.06862
222.06862
222.06862
222.06862
222.06862
222.06862
222.06862
222.06862
222.06862
222.06862
222.06862
222.06862
222.06862
222.06862
222.06862
222.06862
222.06862
222.06862
222.06862
222.06862
222.06862
222.06862
222.06862
222.06862
222.06862
222.06862
222.07891
222.08437
222.06862
222.06862
221.9336
222.07936
222.14992
222.06862
222.06862
222.06862
220.78249
718.52441
222.18449
223.03108
222.06862
222.06862
222.06862
222.06862
222.06862
222.06862
222.06862
222.06862
222.06862
222.06862
222.06862
222.06862
222.06862
222.06862
222.06862
222.06862
222.06862
717.08284
222.06862
222.06862
222.06862
222.06862
222.06862
222.06862
222.06862
222.06862
222.06862
222.06862
717.08284
717.08284
222.06862
222.06862
222.06862
222.06862
222.06862
222.06862
222.06862
222.06862
717.08284
717.08284
717.08284
717.06676
717.07979
717.08364
717.08279
222.06862
222.06862
222.06862
222.06862
222.06862
222.06862
222.06862
222.06862
222.06862
222.06862
222.06862
222.06862
222.06862
222.06862
222.06862
222.06862
222.06862
222.06862
222.06862
222.06862
222.06862
222.06862
222.06862
222.06862
222.06862
222.06862
717.08281
717.08284
717.08284
717.08284
717.08284
717.08284
717.08284
717.08284
717.08284
717.08284
222.06862
222.06862
222.06862
222.06862
222.06862
222.06862
222.06862
222.06862
222.06862
222.06862
222.06862
222.06862
222.06862
222.06862
222.06862
222.06862
222.06862
222.06862
222.06862
222.06862
222.06862
717.08284
717.08284
717.08284
222.06862
222.06862
222.06862
222.06862
222.06862
222.06862
717.08284
717.08284
222.06862
222.06862
222.06862
222.06862
222.06862
222.06862
222.06862
222.06862
222.06862
222.06862
222.06862
222.06862
)


393
(
0
0
0
0
585.76158
585.76158
585.76158
585.76158
585.76158
585.76158
585.76158
585.76158
585.76158
585.76158
585.76158
585.76158
585.76158
585.76158
585.76158
585.76158
585.76158
585.76158
585.76158
585.76158
0
0
0
0
0
169.66998
169.66998
169.66998
169.66998
169.66998
169.66998
169.66998
585.76158
585.76158
585.76158
585.76158
169.66998
585.76158
585.76158
585.76158
585.76158
585.7616
585.76165
585.76158
585.75199
585.76116
169.66998
169.66998
169.66998
169.66998
169.66998
585.76158
169.66998
585.76158
169.66998
585.76158
585.76082
585.76158
585.7615
585.76158
585.76158
585.76158
585.76158
585.76158
585.76158
585.76158
585.76158
585.76158
585.76158
169.66998
169.66998
169.66998
169.66998
169.66998
169.66998
169.66998
169.66998
585.76158
169.66998
169.66998
169.66998
585.76158
169.66998
169.66998
169.67558
169.66998
169.66174
585.76158
169.67487
585.76158
585.76158
167.07272
585.80003
169.81063
169.66998
169.66998
169.66998
169.66998
169.66998
169.66998
169.66998
169.66998
585.76158
585.76158
585.78861
586.05583
169.66998
169.66998
169.66998
169.66998
169.66998
585.76158
585.76158
585.76158
585.76158
169.66998
169.66998
169.66998
169.66998
585.76158
585.76158
585.55628
585.75736
585.76045
585.76021
169.66998
169.66998
169.66998
169.66998
169.66998
169.66998
169.66998
169.66998
169.66998
169.66998
169.66998
169.66998
169.66998
585.76154
585.76105
585.76158
585.76158
585.76137
585.76158
585.76158
585.76158
585.76158
585.76158
585.76158
585.76158
585.76158
585.76158
585.76158
585.76158
585.76158
585.76158
585.76158
585.76158
169.66998
169.66998
169.66998
169.66998
169.66998
169.66998
585.76158
585.76158
585.76158
585.76158
585.76158
585.76158
585.76158
585.76158
585.76158
585.76158
169.66998
169.66998
169.66998
169.66998
169.66998
169.66998
169.66998
169.66998
169.66998
169.66998
169.66998
169.66998
169.66998
169.66998
169.66998
169.66998
169.66998
169.66998
169.66998
169.66998
169.66998
169.66998
169.66998
169.66998
169.66998
169.66998
169.66998
169.66998
169.66998
169.66998
169.66998
169.69988
169.66998
169.71087
169.83752
169.66998
169.66998
169.66998
169.66998
169.66998
169.66998
169.67987
169.66998
169.66998
169.66998
169.66998
169.66998
169.66998
169.66998
169.66998
169.66998
169.66998
169.66998
169.66998
169.66998
169.66998
169.66998
169.66998
169.66998
169.66998
169.66998
169.66998
169.66998
169.66998
169.66998
169.66998
169.66998
169.66998
169.66998
169.66998
169.66998
169.66998
169.66998
169.66998
169.66998
169.66998
169.67994
169.67682
169.66998
169.66998
169.57478
169.68032
169.75475
169.66998
169.66998
169.66998
168.77202
590.43729
169.7352
170.59175
169.66998
169.66998
169.66998
169.66998
169.66998
169.66998
169.66998
169.66998
169.66998
169.66998
169.66998
169.66998
169.66998
169.66998
169.66998
169.66998
169.66998
585.76158
169.66998
169.66998
169.66998
169.66998
169.66998
169.66998
169.66998
169.66998
169.66998
169.66998
585.76158
585.76158
169.66998
169.66998
169.66998
169.66998
169.66998
169.66998
169.66998
169.66998
585.76158
585.76158
585.76158
585.73833
585.75734
585.76676
585.76248
169.66998
169.66998
169.66998
169.66998
169.66998
169.66998
169.66998
169.66998
169.66998
169.66998
169.66998
169.66998
169.66998
169.66998
169.66998
169.66998
169.66998
169.66998
169.66998
169.66998
169.66998
169.66998
169.66998
169.66998
169.66998
169.66998
585.76154
585.76158
585.76158
585.76158
585.76158
585.76158
585.76158
585.76158
585.76158
585.76158
169.66998
169.66998
169.66998
169.66998
169.66998
169.66998
169.66998
169.66998
169.66998
169.66998
169.66998
169.66998
169.66998
169.66998
169.66998
169.66998
169.66998
169.66998
169.66998
169.66998
169.66998
585.76158
585.76158
585.76158
169.66998
169.66998
169.66998
169.66998
169.66998
169.66998
585.76158
585.76158
169.66998
169.66998
169.66998
169.66998
169.66998
169.66998
169.66998
169.66998
169.66998
169.66998
169.66998
169.66998
)


393
(
0
0
0
0
536.2201
536.2201
536.2201
536.2201
536.2201
536.2201
536.2201
536.2201
536.2201
536.2201
536.2201
536.2201
536.2201
536.2201
536.2201
536.2201
536.2201
536.2201
536.2201
536.2201
0
0
0
0
0
129.78276
129.78276
129.78276
129.78276
129.78276
129.78276
129.78276
536.2201
536.2201
536.2201
536.2201
129.78276
536.2201
536.2201
536.2201
536.2201
536.21976
536.2154
536.2201
536.20617
536.21958
129.78276
129.78276
129.78276
129.78276
129.78276
536.2201
129.78276
536.2201
129.78276
536.2201
536.21892
536.2201
536.22
536.2201
536.2201
536.2201
536.2201
536.2201
536.2201
536.2201
536.2201
536.2201
536.2201
129.78276
129.78276
129.78276
129.78276
129.78276
129.78276
129.78276
129.78276
536.2201
129.78276
129.78276
129.78276
536.2201
129.78276
129.78276
129.78626
129.78276
129.77699
536.22008
129.79066
536.2201
536.2201
127.39934
536.16538
129.71922
129.78276
129.78276
129.78276
129.78276
129.78276
129.78276
129.78276
129.78276
536.2201
536.2201
536.27104
536.76395
129.78276
129.78276
129.78276
129.78276
129.78276
536.2201
536.2201
536.2201
536.2201
129.78276
129.78276
129.78276
129.78276
536.2201
536.2201
535.9418
536.21419
536.21877
536.2182
129.78276
129.78276
129.78276
129.78276
129.78276
129.78276
129.78276
129.78276
129.78276
129.78276
129.78276
129.78276
129.78276
536.22002
536.21934
536.2201
536.2201
536.2198
536.2201
536.2201
536.2201
536.2201
536.2201
536.2201
536.2201
536.2201
536.2201
536.2201
536.2201
536.2201
536.2201
536.2201
536.2201
129.78276
129.78276
129.78276
129.78276
129.78276
129.78276
536.2201
536.2201
536.2201
536.2201
536.2201
536.2201
536.2201
536.2201
536.2201
536.2201
129.78276
129.78276
129.78276
129.78276
129.78276
129.78276
129.78276
129.78276
129.78276
129.78276
129.78276
129.78276
129.78276
129.78276
129.78276
129.78276
129.78276
129.78276
129.78276
129.78276
129.78276
129.78276
129.78276
129.78276
129.78276
129.78276
129.78276
129.78276
129.78276
129.78276
129.78276
129.81508
129.78276
129.82664
129.96041
129.78276
129.78276
129.78276
129.78276
129.78276
129.78276
129.79342
129.78276
129.78276
129.78276
129.78276
129.78276
129.78276
129.78276
129.78276
129.78276
129.78276
129.78276
129.78276
129.78276
129.78276
129.78276
129.78276
129.78276
129.78276
129.78276
129.78276
129.78276
129.78276
129.78276
129.78276
129.78276
129.78276
129.78276
129.78276
129.78276
129.78276
129.78276
129.78276
129.78276
129.78276
129.79353
129.78256
129.78276
129.78276
129.71176
129.7939
129.88001
129.78276
129.78276
129.78276
129.12421
544.25336
129.81095
130.77173
129.78276
129.78276
129.78276
129.78276
129.78276
129.78276
129.78276
129.78276
129.78276
129.78276
129.78276
129.78276
129.78276
129.78276
129.78276
129.78276
129.78276
536.2201
129.78276
129.78276
129.78276
129.78276
129.78276
129.78276
129.78276
129.78276
129.78276
129.78276
536.2201
536.2201
129.78276
129.78276
129.78276
129.78276
129.78276
129.78276
129.78276
129.78276
536.2201
536.2201
536.2201
536.18862
536.21447
536.22978
536.22196
129.78276
129.78276
129.78276
129.78276
129.78276
129.78276
129.78276
129.78276
129.78276
129.78276
129.78276
129.78276
129.78276
129.78276
129.78276
129.78276
129.78276
129.78276
129.78276
129.78276
129.78276
129.78276
129.78276
129.78276
129.78276
129.78276
536.22005
536.2201
536.2201
536.2201
536.2201
536.2201
536.2201
536.2201
536.2201
536.2201
129.78276
129.78276
129.78276
129.78276
129.78276
129.78276
129.78276
129.78276
129.78276
129.78276
129.78276
129.78276
129.78276
129.78276
129.78276
129.78276
129.78276
129.78276
129.78276
129.78276
129.78276
536.2201
536.2201
536.2201
129.78276
129.78276
129.78276
129.78276
129.78276
129.78276
536.2201
536.2201
129.78276
129.78276
129.78276
129.78276
129.78276
129.78276
129.78276
129.78276
129.78276
129.78276
129.78276
129.78276
)


393
(
0
0
0
0
411.8157
411.8157
411.8157
411.8157
411.8157
411.8157
411.8157
411.8157
411.8157
411.8157
411.8157
411.8157
411.8157
411.8157
411.8157
411.8157
411.8157
411.8157
411.8157
411.8157
0
0
0
0
0
61.054291
61.054291
61.054291
61.054291
61.054291
61.054291
61.054291
411.8157
411.8157
411.8157
411.8157
61.054291
411.8157
411.8157
411.8157
411.8157
411.81503
411.80682
411.8157
411.7999
411.81518
61.054291
61.054291
61.054291
61.054291
61.054291
411.8157
61.054291
411.8157
61.054291
411.8157
411.81429
411.8157
411.8156
411.8157
411.8157
411.8157
411.8157
411.8157
411.8157
411.8157
411.8157
411.8157
411.8157
61.054291
61.054291
61.054291
61.054291
61.054291
61.054291
61.054291
61.054291
411.8157
61.054291
61.054291
61.054291
411.8157
61.054291
61.054291
61.055308
61.054291
61.05167
411.81566
61.063873
411.8157
411.8157
59.217957
411.67173
60.807871
61.054291
61.054291
61.054291
61.054291
61.054291
61.054291
61.054291
61.054291
411.8157
411.8157
411.8822
412.51947
61.054291
61.054291
61.054291
61.054291
61.054291
411.8157
411.8157
411.8157
411.8157
61.054291
61.054291
61.054291
61.054291
411.8157
411.8157
411.51437
411.80916
411.81443
411.8136
61.054291
61.054291
61.054291
61.054291
61.054291
61.054291
61.054291
61.054291
61.054291
61.054291
61.054291
61.054291
61.054291
411.81561
411.81484
411.8157
411.8157
411.81535
411.8157
411.8157
411.8157
411.8157
411.8157
411.8157
411.8157
411.8157
411.8157
411.8157
411.8157
411.8157
411.8157
411.8157
411.8157
61.054291
61.054291
61.054291
61.054291
61.054291
61.054291
411.8157
411.8157
411.8157
411.8157
411.8157
411.8157
411.8157
411.8157
411.8157
411.8157
61.054291
61.054291
61.054291
61.054291
61.054291
61.054291
61.054291
61.054291
61.054291
61.054291
61.054291
61.054291
61.054291
61.054291
61.054291
61.054291
61.054291
61.054291
61.054291
61.054291
61.054291
61.054291
61.054291
61.054291
61.054291
61.054291
61.054291
61.054291
61.054291
61.054291
61.054291
61.084184
61.054291
61.094608
61.215678
61.054291
61.054291
61.054291
61.054291
61.054291
61.054291
61.06413
61.054291
61.054291
61.054291
61.054291
61.054291
61.054291
61.054291
61.054291
61.054291
61.054291
61.054291
61.054291
61.054291
61.054291
61.054291
61.054291
61.054291
61.054291
61.054291
61.054291
61.054291
61.054291
61.054291
61.054291
61.054291
61.054291
61.054291
61.054291
61.054291
61.054291
61.054291
61.054291
61.054291
61.054291
61.064264
61.047495
61.054291
61.054291
61.016364
61.064571
61.149173
61.054291
61.054291
61.054291
60.716541
421.84961
61.043548
61.963016
61.054291
61.054291
61.054291
61.054291
61.054291
61.054291
61.054291
61.054291
61.054291
61.054291
61.054291
61.054291
61.054291
61.054291
61.054291
61.054291
61.054291
411.8157
61.054291
61.054291
61.054291
61.054291
61.054291
61.054291
61.054291
61.054291
61.054291
61.054291
411.8157
411.8157
61.054291
61.054291
61.054291
61.054291
61.054291
61.054291
61.054291
61.054291
411.8157
411.8157
411.8157
411.78164
411.8097
411.82828
411.81822
61.054291
61.054291
61.054291
61.054291
61.054291
61.054291
61.054291
61.054291
61.054291
61.054291
61.054291
61.054291
61.054291
61.054291
61.054291
61.054291
61.054291
61.054291
61.054291
61.054291
61.054291
61.054291
61.054291
61.054291
61.054291
61.054291
411.81565
411.8157
411.8157
411.8157
411.8157
411.8157
411.8157
411.8157
411.8157
411.8157
61.054291
61.054291
61.054291
61.054291
61.054291
61.054291
61.054291
61.054291
61.054291
61.054291
61.054291
61.054291
61.054291
61.054291
61.054291
61.054291
61.054291
61.054291
61.054291
61.054291
61.054291
411.8157
411.8157
411.8157
61.054291
61.054291
61.054291
61.054291
61.054291
61.054291
411.8157
411.8157
61.054291
61.054291
61.054291
61.054291
61.054291
61.054291
61.054291
61.054291
61.054291
61.054291
61.054291
61.054291
)


393
(
0
0
0
0
284.42858
284.42858
284.42858
284.42858
284.42858
284.42858
284.42858
284.42858
277.47377
284.42858
284.42858
284.42858
284.42858
259.45435
284.42858
219.65831
155.14365
284.42858
155.1403
284.42858
0
0
0
0
0
0
0
0
0
0
0
0
284.42858
284.42858
284.42858
284.42858
0
284.42858
284.42858
284.42858
284.42858
284.42764
284.41617
284.42858
284.41212
284.42809
0
0
0
0
0
284.42858
0
284.42858
0
284.42858
284.42706
284.42858
284.42848
284.42858
284.42858
284.42858
284.42858
284.42858
284.42858
284.42858
284.42858
284.42858
284.42858
0
0
0
0
0
0
0
0
284.42858
0
0
0
284.42858
0
0
0
0
0
284.42852
0
284.42858
284.42858
0
284.20592
0
0
0
0
0
0
0
0
0
284.42858
284.42858
284.50553
285.23817
0
0
0
0
0
284.42858
284.42858
284.42858
284.42858
0
0
0
0
284.42858
284.42858
284.12772
284.42191
284.42746
284.42645
0
0
0
0
0
0
0
0
0
0
0
0
0
284.42847
284.42769
284.42858
284.42858
284.42821
284.42858
284.42858
284.42858
284.42858
284.42858
284.42858
284.42858
284.42858
284.42858
284.42858
284.42858
284.42858
284.42858
284.42858
284.42858
0
0
0
0
0
0
284.42858
284.42858
284.42858
284.42858
284.42858
284.42858
284.42858
284.42858
284.42858
284.42858
0
0
0
0
0
0
0
0
0
0
0
0
0
0
0
0
0
0
0
0
0
0
0
0
0
0
0
0
0
0
0
0
0
0
0
0
0
0
0
0
0
0
0
0
0
0
0
0
0
0
0
0
0
0
0
0
0
0
0
0
0
0
0
0
0
0
0
0
0
0
0
0
0
0
0
0
0
0
0
0
0
0
0
0
0
0
0
295.68291
0
0
0
0
0
0
0
0
0
0
0
0
0
0
0
0
0
0
0
284.42858
0
0
0
0
0
0
0
0
0
0
284.42858
284.42858
0
0
0
0
0
0
0
0
284.42858
284.42858
284.42858
284.3946
284.42268
284.44309
284.43156
0
0
0
0
0
0
0
0
0
0
0
0
0
0
0
0
0
0
0
0
0
0
0
0
0
0
284.42853
284.42858
284.42858
284.42858
284.42858
284.42858
284.42858
284.42858
284.42858
284.42858
0
0
0
0
0
0
0
0
0
0
0
0
0
0
0
0
0
0
0
0
0
284.42858
284.42858
284.42858
0
0
0
0
0
0
284.42858
284.42858
0
0
0
0
0
0
0
0
0
0
0
0
)

)


// ************************************************************************* //
