/*--------------------------------*- C++ -*----------------------------------*\
  =========                 |
  \\      /  F ield         | OpenFOAM: The Open Source CFD Toolbox
   \\    /   O peration     | Website:  https://openfoam.org
    \\  /    A nd           | Version:  8
     \\/     M anipulation  |
\*---------------------------------------------------------------------------*/
/*   Windows 32 and 64 bit porting by blueCAPE: http://www.bluecape.com.pt   *\
|  Based on Windows porting (2.0.x v4) by Symscape: http://www.symscape.com   |
\*---------------------------------------------------------------------------*/
FoamFile
{
    version     2.0;
    format      ascii;
    class       polyBoundaryMesh;
    location    "constant/air/polyMesh";
    object      boundary;
}
// * * * * * * * * * * * * * * * * * * * * * * * * * * * * * * * * * * * * * //

16
(
    left
    {
        type            patch;
        nFaces          0;
        startFace       6697;
    }
    right
    {
        type            patch;
        nFaces          0;
        startFace       6697;
    }
    back
    {
        type            patch;
        nFaces          0;
        startFace       6697;
    }
    front
    {
        type            patch;
        nFaces          9;
        startFace       6697;
    }
    bottom
    {
        type            wall;
        inGroups        List<word> 1(wall);
        nFaces          0;
        startFace       6706;
    }
    top
    {
        type            patch;
        nFaces          100;
        startFace       6706;
    }
    tower
    {
        type            mappedWall;
        inGroups        List<word> 
2
(
wall
mappedPatch
)
;
        nFaces          375;
        startFace       6806;
        sampleMode      nearestPatchFace;
        sampleRegion    tower;
        samplePatch     buildings_to_air;
    }
    procBoundary18to5
    {
        type            processor;
        inGroups        List<word> 1(processor);
        nFaces          16;
        startFace       7181;
        matchTolerance  0.0001;
        myProcNo        18;
        neighbProcNo    5;
    }
    procBoundary18to9
    {
        type            processor;
        inGroups        List<word> 1(processor);
        nFaces          36;
        startFace       7197;
        matchTolerance  0.0001;
        myProcNo        18;
        neighbProcNo    9;
    }
    procBoundary18to10
    {
        type            processor;
        inGroups        List<word> 1(processor);
        nFaces          9;
        startFace       7233;
        matchTolerance  0.0001;
        myProcNo        18;
        neighbProcNo    10;
    }
    procBoundary18to11
    {
        type            processor;
        inGroups        List<word> 1(processor);
        nFaces          13;
        startFace       7242;
        matchTolerance  0.0001;
        myProcNo        18;
        neighbProcNo    11;
    }
    procBoundary18to12
    {
        type            processor;
        inGroups        List<word> 1(processor);
        nFaces          7;
        startFace       7255;
        matchTolerance  0.0001;
        myProcNo        18;
        neighbProcNo    12;
    }
    procBoundary18to15
    {
        type            processor;
        inGroups        List<word> 1(processor);
        nFaces          85;
        startFace       7262;
        matchTolerance  0.0001;
        myProcNo        18;
        neighbProcNo    15;
    }
    procBoundary18to16
    {
        type            processor;
        inGroups        List<word> 1(processor);
        nFaces          114;
        startFace       7347;
        matchTolerance  0.0001;
        myProcNo        18;
        neighbProcNo    16;
    }
    procBoundary18to17
    {
        type            processor;
        inGroups        List<word> 1(processor);
        nFaces          120;
        startFace       7461;
        matchTolerance  0.0001;
        myProcNo        18;
        neighbProcNo    17;
    }
    procBoundary18to19
    {
        type            processor;
        inGroups        List<word> 1(processor);
        nFaces          198;
        startFace       7581;
        matchTolerance  0.0001;
        myProcNo        18;
        neighbProcNo    19;
    }
)

// ************************************************************************* //
