/*--------------------------------*- C++ -*----------------------------------*\
  =========                 |
  \\      /  F ield         | OpenFOAM: The Open Source CFD Toolbox
   \\    /   O peration     | Website:  https://openfoam.org
    \\  /    A nd           | Version:  8
     \\/     M anipulation  |
\*---------------------------------------------------------------------------*/
/*   Windows 32 and 64 bit porting by blueCAPE: http://www.bluecape.com.pt   *\
|  Based on Windows porting (2.0.x v4) by Symscape: http://www.symscape.com   |
\*---------------------------------------------------------------------------*/
FoamFile
{
    version     2.0;
    format      ascii;
    class       polyBoundaryMesh;
    location    "constant/air/polyMesh";
    object      boundary;
}
// * * * * * * * * * * * * * * * * * * * * * * * * * * * * * * * * * * * * * //

14
(
    left
    {
        type            patch;
        nFaces          0;
        startFace       16025;
    }
    right
    {
        type            patch;
        nFaces          0;
        startFace       16025;
    }
    back
    {
        type            patch;
        nFaces          0;
        startFace       16025;
    }
    front
    {
        type            patch;
        nFaces          0;
        startFace       16025;
    }
    bottom
    {
        type            wall;
        inGroups        List<word> 1(wall);
        nFaces          512;
        startFace       16025;
    }
    top
    {
        type            patch;
        nFaces          0;
        startFace       16537;
    }
    Building
    {
        type            mappedWall;
        inGroups        List<word> 
2
(
wall
mappedPatch
)
;
        nFaces          148;
        startFace       16537;
        sampleMode      nearestPatchFace;
        sampleRegion    Building;
        samplePatch     buildings_to_air;
    }
    procBoundary2to0
    {
        type            processor;
        inGroups        List<word> 1(processor);
        nFaces          191;
        startFace       16685;
        matchTolerance  0.0001;
        myProcNo        2;
        neighbProcNo    0;
    }
    procBoundary2to1
    {
        type            processor;
        inGroups        List<word> 1(processor);
        nFaces          304;
        startFace       16876;
        matchTolerance  0.0001;
        myProcNo        2;
        neighbProcNo    1;
    }
    procBoundary2to5
    {
        type            processor;
        inGroups        List<word> 1(processor);
        nFaces          2;
        startFace       17180;
        matchTolerance  0.0001;
        myProcNo        2;
        neighbProcNo    5;
    }
    procBoundary2to6
    {
        type            processor;
        inGroups        List<word> 1(processor);
        nFaces          15;
        startFace       17182;
        matchTolerance  0.0001;
        myProcNo        2;
        neighbProcNo    6;
    }
    procBoundary2to7
    {
        type            processor;
        inGroups        List<word> 1(processor);
        nFaces          27;
        startFace       17197;
        matchTolerance  0.0001;
        myProcNo        2;
        neighbProcNo    7;
    }
    procBoundary2to8
    {
        type            processor;
        inGroups        List<word> 1(processor);
        nFaces          5;
        startFace       17224;
        matchTolerance  0.0001;
        myProcNo        2;
        neighbProcNo    8;
    }
    procBoundary2to10
    {
        type            processor;
        inGroups        List<word> 1(processor);
        nFaces          4;
        startFace       17229;
        matchTolerance  0.0001;
        myProcNo        2;
        neighbProcNo    10;
    }
)

// ************************************************************************* //
