/*--------------------------------*- C++ -*----------------------------------*\
  =========                 |
  \\      /  F ield         | OpenFOAM: The Open Source CFD Toolbox
   \\    /   O peration     | Website:  https://openfoam.org
    \\  /    A nd           | Version:  8
     \\/     M anipulation  |
\*---------------------------------------------------------------------------*/
/*   Windows 32 and 64 bit porting by blueCAPE: http://www.bluecape.com.pt   *\
|  Based on Windows porting (2.0.x v4) by Symscape: http://www.symscape.com   |
\*---------------------------------------------------------------------------*/
FoamFile
{
    version     2.0;
    format      ascii;
    class       scalarListList;
    location    "constant/air";
    object      divqrsw;
}
// * * * * * * * * * * * * * * * * * * * * * * * * * * * * * * * * * * * * * //


5
(

5972
(
0
0
0
0
0
0
0
0
0
0
0
0
0
0
0
0
0
0
0
0
0
0
0
0
0
0
0
0
0
0
0
0
0
0
0
0
0
0
0
0
0
0
0
0
0
0
0
0
0
0
0
0
0
0
0
0
0
0
0
0
0
0
0
0
0
0
0
0
0
0
0
0
0
0
0
0
0
0
0
0
0
0
0
0
0
0
0
0
0
0
0
0
0
0
0
0
0
0
0
0
0
0
0
0
0
0
0
0
0
0
0
0
0
0
0
0
0
0
0
0
0
0
0
0
0
0
0
0
0
0
0
0
0
0
0
0
0
0
0
0
0
0
0
0
0
0
0
0
0
0
0
0
0
0
0
0
0
0
0
0
0
0
0
0
0
0
0
0
0
0
0
0
0
0
0
0
0
0
0
0
0
0
0
0
0
0
0
0
0
0
0
0
0
0
0
0
0
0
0
0
0
0
0
0
0
0
0
0
0
0
0
0
0
0
0
0
0
0
0
0
0
0
0
0
0
0
0
0
0
0
0
0
0
0
0
0
0
0
0
0
0
0
0
0
0
0
0
0
0
0
0
0
0
0
0
0
0
0
0
0
0
0
0
0
0
0
0
0
0
0
0
0
0
0
0
0
0
0
0
0
0
0
0
0
0
0
0
0
0
0
0
0
0
0
0
0
0
0
0
0
0
0
0
0
0
0
0
0
0
0
0
0
0
0
0
0
0
0
0
0
0
0
0
0
0
0
0
0
0
0
0
0
0
0
0
0
0
0
0
0
0
0
0
0
0
0
0
0
0
0
0
0
0
0
0
0
0
0
0
0
0
0
0
0
0
0
0
0
0
0
0
0
0
0
0
0
0
0
0
0
0
0
0
0
0
0
0
0
0
0
0
0
0
0
0
0
0
0
0
0
0
0
0
0
0
0
0
0
0
0
0
0
0
0
0
0
0
0
0
0
0
0
0
0
0
0
0
0
0
0
0
0
0
0
0
0
0
0
0
0
0
0
0
0
0
0
0
0
0
0
0
0
0
0
0
0
0
0
0
0
0
0
0
0
0
0
0
0
0
0
0
0
0
0
0
0
0
0
0
0
0
0
0
0
0
0
0
0
0
0
0
0
0
0
0
0
0
0
0
0
0
0
0
0
0
0
0
0
0
0
0
0
0
0
0
0
0
0
0
0
0
0
0
0
0
0
0
0
0
0
0
0
0
0
0
0
0
0
0
0
0
0
0
0
0
0
0
0
0
0
0
0
0
0
0
0
0
0
0
0
0
0
0
0
0
0
0
0
0
0
0
0
0
0
0
0
0
0
0
0
0
0
0
0
0
0
0
0
0
0
0
0
0
0
0
0
0
0
0
0
0
0
0
0
0
0
0
0
0
0
0
0
0
0
0
0
0
0
0
0
0
0
0
0
0
0
0
0
0
0
0
0
0
0
0
0
0
0
0
0
0
0
0
0
0
0
0
0
0
0
0
0
0
0
0
0
0
0
0
0
0
0
0
0
0
0
0
0
0
0
0
0
0
0
0
0
0
0
0
0
0
0
0
0
0
0
0
0
0
0
0
0
0
0
0
0
0
0
0
0
0
0
0
0
0
0
0
0
0
0
0
0
0
0
0
0
0
0
0
0
0
0
0
0
0
0
0
0
0
0
0
0
0
0
0
0
0
0
0
0
0
0
0
0
0
0
0
0
0
0
0
0
0
0
0
0
0
0
0
0
0
0
0
0
0
0
0
0
0
0
0
0
0
0
0
0
0
0
0
0
0
0
0
0
0
0
0
0
0
0
0
0
0
0
0
0
0
0
0
0
0
0
0
0
0
0
0
0
0
0
0
0
0
0
0
0
0
0
0
0
0
0
0
0
0
0
0
0
0
0
0
-141.00438
-192.17202
0
-126.93433
0
0
-53.811352
0
0
0
0
0
0
0
0
0
0
0
0
0
0
0
0
0
0
0
0
0
0
0
0
0
0
0
0
0
0
-161.07464
-165.61817
-187.19912
-166.65353
0
0
0
0
0
0
0
0
-24.232387
0
-43.007002
0
0
-110.08863
0
0
0
0
-130.47559
-146.55424
0
0
0
0
0
0
0
0
0
0
0
0
0
0
0
0
0
0
0
0
0
0
0
0
0
0
0
0
0
0
0
0
0
0
0
0
0
0
0
0
0
0
0
0
0
0
0
0
0
0
0
0
0
0
0
0
0
0
0
0
0
0
0
0
0
0
0
0
0
0
0
0
0
0
0
0
0
0
0
0
0
0
0
0
0
0
0
0
0
0
0
0
0
0
0
0
0
0
0
0
0
0
0
0
0
0
0
0
0
0
0
0
0
0
0
0
0
0
0
0
0
0
0
0
0
0
0
0
0
0
0
0
0
0
0
0
0
0
0
0
0
0
0
0
0
0
0
0
0
0
0
0
0
0
0
0
0
0
0
0
0
0
0
0
0
0
0
0
0
0
0
0
0
0
0
0
0
0
0
0
0
0
0
0
0
0
0
0
0
0
0
0
0
-103.53589
-124.56996
-68.062223
0
0
0
0
0
0
0
0
0
0
0
0
0
0
0
0
0
0
0
-108.45277
0
0
0
0
0
0
0
0
0
0
0
0
0
0
0
0
0
0
0
0
0
0
0
0
0
0
0
0
0
0
0
0
0
0
0
0
0
0
0
0
0
0
0
0
0
0
0
0
0
0
0
0
0
0
0
0
0
0
0
0
0
0
0
0
0
0
0
0
0
0
0
0
0
0
0
0
0
0
0
0
0
0
0
0
0
0
0
0
0
0
0
0
0
0
0
0
0
0
0
0
0
0
0
0
0
0
0
0
0
0
0
0
0
0
0
0
0
0
0
0
0
0
0
0
0
0
0
0
0
0
0
0
0
0
0
0
0
0
0
0
0
0
0
0
0
0
0
0
0
0
0
0
0
0
0
0
0
0
0
0
0
0
0
0
0
0
0
0
0
0
0
0
0
0
0
0
0
0
0
0
0
0
0
0
0
0
0
0
0
0
0
0
0
0
0
0
0
0
0
0
0
0
0
0
0
0
0
0
0
0
0
0
0
0
0
0
0
0
0
0
0
0
0
0
0
0
0
0
0
0
0
0
0
0
0
0
0
0
0
0
0
0
0
0
0
0
0
0
0
0
-111.94087
0
0
-73.726719
0
0
0
-135.86174
-127.89933
-153.05593
-128.94502
-153.60867
0
0
-145.17288
-135.28899
-111.19089
-169.38292
-74.091802
0
0
0
-120.91367
-112.21288
-145.86087
-77.846657
-128.82419
-64.685794
-80.21595
-71.972462
0
0
0
-126.3071
0
0
0
0
0
0
0
0
0
0
0
0
0
0
0
0
0
0
0
0
0
0
0
0
0
0
0
0
0
0
0
0
0
0
0
0
-62.85167
0
-34.150405
-91.451759
-55.122346
-62.538072
0
0
0
0
0
0
0
-20.643219
0
0
0
0
0
0
-35.170558
-96.908188
-59.028256
-66.231748
-29.693313
0
-59.398103
0
0
0
0
0
0
0
0
0
0
0
0
0
0
0
0
0
0
0
0
0
0
0
0
0
0
0
0
0
0
0
0
0
0
0
0
0
0
0
0
0
0
0
0
0
0
0
0
0
0
0
0
0
0
0
-119.62536
0
0
0
0
0
0
0
0
0
0
0
0
0
0
0
0
0
0
0
0
0
0
0
0
0
0
0
0
0
0
0
0
0
0
0
0
0
0
0
0
0
0
0
0
0
0
0
0
0
0
0
0
0
0
0
0
0
0
0
0
0
0
0
0
0
0
0
0
0
0
0
0
0
0
0
0
0
0
0
0
0
0
0
0
0
0
0
0
0
0
0
0
0
0
0
0
0
0
0
0
0
0
0
0
0
0
0
0
0
0
0
0
0
0
0
0
0
0
0
0
0
0
0
0
0
0
0
0
0
0
0
0
0
0
0
0
0
0
0
0
0
0
0
0
0
0
0
0
0
0
0
0
0
0
0
0
0
0
0
0
0
0
0
0
0
0
0
0
0
0
0
0
0
0
0
0
0
0
0
0
0
0
0
0
0
0
0
0
0
0
0
0
0
0
0
0
0
0
0
0
0
0
0
0
0
0
0
0
0
0
0
0
0
0
0
0
0
0
0
0
0
0
0
0
0
0
0
0
0
0
0
0
0
0
0
0
0
0
0
0
0
0
0
0
0
0
0
0
0
0
0
0
0
0
0
0
0
0
0
0
0
0
0
0
0
0
0
0
0
0
0
0
0
0
0
0
0
0
0
0
0
0
0
0
0
0
0
0
0
0
0
0
0
0
0
0
0
0
0
0
0
0
0
0
0
0
0
0
0
0
0
0
0
0
0
0
0
0
0
0
0
0
0
0
0
0
0
0
0
0
0
0
0
0
0
0
0
0
0
0
0
0
0
0
0
0
0
0
0
0
0
0
0
0
0
0
0
0
0
0
0
0
0
0
0
0
0
0
0
0
0
0
0
0
0
0
0
0
0
0
0
0
0
0
0
0
0
0
0
0
0
0
0
0
0
0
0
0
0
0
0
0
0
0
0
0
0
0
0
0
0
0
0
0
0
0
0
0
0
0
0
0
0
0
0
0
0
0
0
0
0
0
0
0
0
0
0
0
0
0
0
0
0
0
0
0
0
0
0
0
0
0
0
0
0
0
0
0
0
0
0
0
0
0
-155.90279
0
0
-124.86093
-125.76463
-180.21092
-126.42261
0
0
0
0
0
0
-124.75628
0
0
-153.30413
0
0
0
0
0
0
0
0
0
0
0
0
0
0
0
0
0
0
0
0
0
0
0
0
0
0
0
0
0
0
0
0
0
0
0
0
0
0
0
0
0
0
0
0
0
0
0
0
0
0
0
0
0
0
0
0
0
0
0
0
0
0
0
0
0
0
0
0
0
0
0
0
0
0
0
0
0
0
0
0
0
0
0
0
0
0
0
0
0
0
0
0
0
0
0
0
0
0
0
0
0
0
0
0
0
0
0
0
0
0
0
0
0
0
0
0
0
0
0
0
0
0
0
0
0
0
0
0
0
0
0
0
0
0
0
0
0
0
0
0
0
0
0
0
0
0
0
0
0
0
0
0
0
0
0
0
0
0
0
0
0
0
0
0
0
0
0
0
0
0
0
0
0
0
0
0
0
0
0
0
0
0
0
0
0
0
0
0
0
0
0
0
0
0
0
0
0
0
0
0
0
0
0
0
0
0
0
0
0
0
0
0
0
0
0
0
0
0
0
0
0
0
0
0
0
0
0
0
0
0
0
0
0
0
0
0
0
0
0
0
0
0
0
0
0
0
0
0
0
0
0
0
0
0
0
0
0
0
0
0
0
0
0
0
0
0
0
0
0
0
0
0
0
0
0
0
0
0
0
0
0
0
0
0
0
0
0
0
0
0
0
0
0
0
0
0
0
0
0
0
0
0
0
0
0
0
0
0
0
0
0
0
0
0
0
0
0
0
0
0
0
0
0
0
0
0
0
0
0
0
0
0
0
0
0
0
0
0
0
0
0
0
0
0
0
0
0
0
0
0
0
0
0
0
0
0
0
0
0
0
0
0
0
0
0
0
0
0
0
0
0
0
0
0
0
0
0
0
0
0
0
0
0
0
0
0
0
0
0
0
0
0
0
0
0
0
0
0
0
0
0
0
0
0
0
0
0
0
0
0
0
0
0
0
0
0
0
0
0
0
0
0
0
0
0
0
0
0
0
0
0
0
0
0
0
0
0
0
0
0
0
0
-25.79897
0
0
0
0
0
0
0
0
0
0
0
0
0
0
0
0
0
0
0
0
0
0
0
0
0
0
0
0
0
0
0
0
0
0
0
0
0
0
0
0
0
0
0
0
0
0
0
0
0
0
0
0
0
0
0
0
0
0
0
0
0
0
0
0
0
0
0
0
0
0
0
0
0
0
0
0
0
0
0
0
0
0
0
0
0
0
0
0
0
0
0
0
0
0
0
0
0
0
0
0
0
0
0
0
0
0
0
0
0
0
0
0
0
0
0
0
0
0
0
0
0
0
0
0
0
0
0
0
0
0
0
0
0
0
0
0
0
0
0
0
0
0
0
0
0
0
0
0
0
0
0
0
0
0
0
0
0
0
0
0
0
0
0
0
0
0
0
0
0
0
0
0
0
0
0
0
-86.718787
-87.982716
-76.461201
-99.924562
0
0
0
0
0
0
0
0
0
0
0
0
0
0
0
0
0
0
0
0
0
0
0
0
0
0
0
0
0
0
0
0
0
0
0
0
0
0
0
0
0
0
0
0
0
0
0
0
0
0
0
0
0
0
0
0
0
0
0
0
0
0
0
0
0
0
0
0
0
0
0
0
0
0
0
0
0
0
0
0
0
0
0
0
0
0
0
0
0
0
0
0
0
0
0
0
0
0
0
0
0
0
0
0
0
0
0
0
0
0
0
0
0
0
0
0
0
0
0
0
0
0
0
0
0
0
0
0
0
0
0
0
0
0
0
0
0
0
0
0
0
0
0
0
0
0
0
0
0
0
0
0
0
0
0
0
0
0
0
0
0
0
0
0
0
0
0
0
0
0
0
0
0
0
0
0
0
0
0
0
0
0
0
0
0
0
0
0
0
0
0
0
0
0
0
0
0
0
0
0
0
0
0
0
0
0
0
0
0
0
0
0
0
0
0
0
0
0
0
0
0
0
0
0
0
0
0
0
0
0
0
0
0
0
0
0
0
0
0
0
0
0
0
0
0
0
0
-135.2319
-106.32244
-116.75052
-126.11754
0
0
0
0
0
0
0
0
0
0
0
0
0
0
0
0
0
0
0
0
0
0
0
0
0
0
0
0
0
0
0
0
0
0
0
0
0
0
0
0
0
0
0
0
0
0
0
0
0
0
0
0
0
0
0
0
0
0
0
0
0
0
0
0
0
0
0
0
0
0
0
0
0
0
0
0
0
0
0
0
0
0
0
0
0
0
0
0
0
0
0
0
0
0
0
0
0
0
0
0
0
0
0
0
0
0
0
0
0
0
0
0
0
0
0
0
0
0
0
0
0
0
0
0
0
0
0
0
0
0
0
0
0
0
0
0
0
0
0
0
0
0
0
0
0
0
0
0
0
0
0
0
0
0
0
0
0
0
0
0
0
0
0
0
0
0
0
0
0
0
0
0
0
0
0
0
0
0
0
0
0
0
0
0
0
0
0
0
0
0
0
0
0
0
0
0
0
0
0
0
0
0
0
0
0
0
0
0
0
0
0
0
0
0
0
0
0
0
0
0
0
0
0
0
0
0
0
0
0
0
0
0
0
0
0
0
0
0
0
0
0
0
0
0
0
-150.61395
-157.10093
-162.37738
-110.20908
-168.64884
-130.26594
-138.99717
-176.64353
-178.69425
-180.83082
-187.82538
-173.76414
-188.77975
-185.37684
-194.11104
-184.06083
-172.4749
-190.6769
-128.50212
0
0
0
-100.72693
-100.22331
-110.97088
-156.09459
-170.63519
-106.02078
-145.61858
-124.61003
-147.33726
-177.83863
-166.31981
-164.54557
-143.97284
-183.14648
0
0
0
0
-55.594259
0
0
-39.441114
-44.464945
-34.155194
-51.500604
0
0
0
0
0
0
0
0
0
0
0
0
-41.127359
-49.468249
0
0
0
-49.278184
0
-35.775741
-58.880065
0
-184.69213
-151.35665
-169.40487
-186.49552
-195.63008
-176.23407
-159.18288
-186.74457
-177.5868
-181.76966
-165.76028
-183.04575
-178.53441
-187.55762
-193.35766
-178.97084
-201.53949
-178.09382
-191.29378
-205.75281
-168.35419
-186.55819
-188.82008
-165.55689
-179.30858
-178.93296
-188.25301
-185.67972
0
0
0
0
0
0
0
0
0
0
0
0
0
0
0
0
0
0
0
0
0
0
0
0
0
0
0
0
0
0
0
0
0
0
0
0
0
0
0
0
0
0
0
0
0
0
0
0
-19.978018
-24.580072
-28.315538
0
-28.353335
0
-17.815694
0
0
0
0
0
0
0
-23.203925
-33.478188
-40.633442
0
-28.930597
-32.923063
0
0
0
0
0
0
0
0
0
-127.68511
0
0
-99.658323
-87.966016
0
0
0
0
0
-74.055139
0
0
0
0
0
0
0
0
0
0
0
0
0
0
0
0
-111.62224
-147.98342
-138.33738
0
-157.75268
-101.24301
0
-121.30309
0
-145.08886
-169.72005
-166.9838
0
-121.77412
0
0
0
0
0
0
0
0
0
0
0
0
0
0
-95.86613
0
0
0
-77.661591
-82.422844
-106.90607
-74.901676
-54.32308
-62.894134
-65.287795
-96.584062
-119.43067
-97.5239
-110.51076
-95.512493
-95.758343
-115.94496
-91.004512
-104.14975
-83.831572
-107.86294
-84.782649
-58.148146
-67.349326
-78.107882
-106.76439
-109.62442
-121.44977
-124.14226
-103.7069
-116.78043
-116.9654
-84.032145
-82.528621
-61.348724
-79.36669
-72.882184
-93.010435
-72.399163
0
0
0
0
0
0
0
0
0
0
0
0
0
0
0
0
0
0
0
0
0
0
0
0
0
0
-109.06967
-89.07523
0
0
0
0
0
0
0
-69.279184
0
0
0
0
-101.06425
0
0
0
0
0
0
0
0
0
0
0
-79.568034
-120.48701
-97.939829
-112.60519
0
0
0
0
0
-128.79297
0
0
0
0
0
0
-86.192113
0
0
0
0
0
0
0
0
0
0
0
0
0
0
0
0
0
0
-79.218395
-99.681242
-100.72504
-71.618039
-89.812462
0
0
0
0
0
0
-67.88913
0
0
0
0
0
0
-74.175604
0
0
-53.027552
-86.949614
-66.285115
-61.86975
-77.343088
0
0
0
0
0
0
0
0
0
0
0
0
0
0
0
-113.4238
-97.859183
-143.2511
-149.14927
-156.83456
-103.69587
-107.38465
0
0
-141.63441
-128.19198
-146.83127
0
0
-117.37715
-109.59261
-148.2839
-159.69638
-162.5931
-107.176
-115.97414
0
0
-148.23587
-128.24581
-147.88248
0
0
-141.91075
-144.43772
-134.81058
-178.59479
-169.07466
-130.31961
-136.90658
-110.04152
0
0
0
-74.4903
-87.085567
-93.172021
-112.15861
-98.766492
-86.336547
0
-83.94577
-107.73789
-95.294604
-146.52446
-174.68222
-160.38751
-107.34469
-178.20172
-130.72739
-127.97698
-111.37829
-126.17628
-143.26878
-113.89343
-133.79769
-119.826
-105.87854
-108.81117
-103.27456
-133.49581
-96.913943
-117.15672
-90.454449
-123.46446
-126.22216
-155.66772
-159.25641
-154.85943
-145.68621
-136.36901
-142.7651
-94.602027
-93.746805
-83.450605
-69.504581
-101.55296
-87.494669
-78.279778
0
0
0
0
0
0
0
0
0
0
0
0
0
0
0
0
0
0
0
0
0
-81.512506
-86.741412
-127.18631
-108.11444
-78.199076
-91.809474
-112.27729
-82.579174
-81.777839
-128.22375
-98.447395
-113.39875
-71.90584
-92.961926
-90.796069
-104.78551
-135.49441
-141.08902
-97.824784
-125.40756
-101.47456
-73.011554
-56.919487
-93.50094
-86.125591
-67.77816
-100.0847
-62.816773
-97.780658
-119.71626
-123.65532
-109.13273
-105.51871
-114.89956
-101.32437
-77.149525
-60.855163
-78.946931
-67.756407
-74.88409
-82.776921
-62.832797
-91.162672
-100.95803
-84.193168
-87.505413
-83.884936
-95.454342
-100.50013
-80.242744
-89.559244
-70.049409
-67.079773
-86.430031
-83.446552
-65.093989
0
-89.960069
-103.35774
-136.87446
0
0
-101.97701
0
0
0
0
0
0
0
0
0
0
0
0
0
0
0
0
-133.82157
0
0
0
0
0
0
0
0
0
0
0
0
0
-39.737644
0
0
0
0
0
0
0
0
0
0
0
0
-46.276023
-50.238995
-56.174016
0
-38.50325
-45.325818
0
0
0
0
0
0
0
-46.437756
-32.96469
-39.192897
-43.181605
-37.591563
-49.136328
-40.977634
-64.25098
-84.903757
-77.744114
-81.169527
-72.344867
-75.634057
-68.769589
-52.604388
-44.649255
-51.024559
-65.905975
-42.475868
-61.150527
-55.971549
-56.69236
-52.890538
-71.424763
-58.651846
-66.69771
-60.466205
-49.796296
0
0
0
0
0
0
0
0
0
0
0
0
0
0
0
-21.194993
0
0
-15.733949
-18.052067
0
0
0
0
0
0
-15.500782
0
0
0
0
0
0
0
0
0
0
0
0
0
0
0
0
0
-40.669712
-45.26451
0
-51.811641
0
-57.075688
-71.4558
-82.859279
-86.439116
-63.523975
-64.524972
-73.027826
0
0
-46.69242
-70.492765
0
-59.143539
0
-50.799483
-50.897138
-55.779388
-75.891077
-57.822175
-44.378561
-63.991967
-33.271436
-28.938023
-38.149926
-25.631817
-34.503035
-36.40698
-25.462235
-38.443555
-47.548615
-53.342821
0
-35.300832
-50.175509
-40.405449
-41.993473
-47.836363
-56.643601
-55.712181
-53.12187
-44.202888
-45.207851
-30.078445
0
0
0
-26.751397
-30.752904
-22.11568
0
0
0
0
0
0
0
0
0
0
0
0
0
0
0
0
0
0
0
0
0
0
0
0
0
0
0
0
0
0
0
0
0
0
0
0
0
0
0
0
0
0
0
0
-141.29143
0
-104.47909
-109.0153
0
0
0
0
0
0
0
0
0
0
0
0
0
0
0
0
0
0
0
0
0
0
0
0
0
0
0
0
0
0
0
0
0
0
0
0
0
0
0
0
0
0
-114.12674
0
0
0
0
-144.40839
-120.76015
0
0
0
-126.14704
0
0
0
0
0
-110.36582
-149.31431
-156.64892
-136.85454
0
0
0
0
0
0
0
0
0
0
0
-136.15079
0
0
0
0
-153.83526
-161.54427
-173.17972
-144.41771
-141.43684
-134.72699
-125.78047
-147.21488
-143.17502
-115.92613
-129.67111
-150.81941
-123.21478
-138.88935
-150.65278
-141.28794
-129.67467
-129.73411
-128.15979
-127.48687
-137.40859
-141.38381
-162.58147
-170.76777
-171.54768
-187.46512
-180.18941
-157.84595
-171.78707
-151.95315
-126.0552
-157.92266
-144.90688
-163.14564
-140.06806
-149.95101
-154.85162
-164.419
-169.19647
-155.19708
0
0
0
0
0
0
0
0
0
0
0
-121.90914
-128.16348
0
-143.87653
0
0
0
0
0
0
0
0
0
-114.73027
0
0
0
-124.24541
0
0
0
-123.48203
0
0
-125.34662
-126.38372
-157.10731
0
-153.31094
0
0
0
0
0
0
0
-100.74901
-90.695006
-126.83576
-143.73872
0
-103.73345
-139.93331
0
0
-124.73148
0
0
0
-128.30603
0
-109.3847
-155.72629
-157.08235
-112.23546
0
-152.7059
0
0
0
-130.17987
0
0
-130.03856
0
0
0
0
0
0
0
0
0
0
0
0
0
0
0
0
0
0
0
0
0
0
0
0
0
0
0
0
0
0
0
0
0
0
0
0
0
0
0
0
0
0
0
0
0
0
0
0
0
0
0
0
0
0
0
0
0
0
0
0
0
0
0
0
0
0
0
0
0
0
0
0
0
0
0
0
0
0
0
0
0
0
0
0
0
0
0
0
0
0
0
0
-58.8546
0
-72.686262
0
0
0
0
0
-76.871598
-78.804216
0
0
0
0
0
0
0
0
0
0
0
0
0
0
0
0
0
0
0
0
0
0
0
0
0
0
0
0
0
0
0
0
0
0
0
0
0
0
0
0
0
0
0
0
0
0
0
0
0
0
0
0
0
0
0
0
0
0
0
0
0
0
0
0
0
0
0
0
0
0
0
0
0
0
0
0
0
0
0
0
0
0
0
0
0
0
0
0
0
0
0
0
0
0
0
0
0
0
0
0
0
0
0
0
0
0
0
0
0
0
0
0
0
0
0
0
0
0
0
0
0
0
0
0
0
0
0
0
0
0
0
0
0
0
0
0
0
0
0
0
0
0
0
0
0
0
0
0
0
0
0
0
0
0
0
0
0
0
0
0
0
0
0
0
0
0
0
0
0
0
0
0
0
0
0
0
0
0
0
0
0
0
0
0
0
0
0
0
0
0
0
0
0
0
0
0
0
0
0
0
0
0
0
0
0
0
0
0
0
0
0
0
0
0
0
0
0
0
0
0
0
0
0
0
0
0
0
0
0
0
0
0
0
0
0
0
0
0
0
0
0
0
0
0
0
0
0
0
0
0
0
0
0
0
0
0
0
0
0
0
0
0
0
0
0
0
0
0
0
0
0
0
0
0
0
0
0
0
0
0
0
0
0
0
0
0
0
0
0
0
0
0
0
0
0
0
0
0
0
0
0
0
0
0
0
0
0
0
0
0
0
0
0
0
0
0
0
0
0
0
0
0
0
0
0
0
0
0
0
0
0
0
0
0
0
0
0
0
0
0
0
0
0
0
0
0
0
0
0
0
0
0
0
0
0
0
0
0
0
0
0
0
0
0
0
0
0
0
0
0
0
0
0
0
0
0
0
0
0
0
0
0
0
0
0
0
0
0
0
0
0
0
0
0
0
0
0
0
0
0
0
0
0
0
0
0
0
0
0
0
0
0
0
0
0
0
0
0
0
0
0
0
0
0
0
0
0
0
0
0
0
0
0
0
0
0
0
0
0
0
0
0
0
0
0
0
0
0
0
0
0
0
0
0
0
0
0
0
0
0
0
0
0
0
0
0
0
0
0
0
0
0
0
0
0
0
0
0
0
0
0
0
0
0
0
0
0
0
0
0
0
0
0
0
0
0
0
0
0
0
0
0
0
0
0
0
0
0
0
0
0
0
0
0
0
0
0
0
0
0
0
0
0
0
0
0
0
0
0
0
0
0
0
0
0
0
0
0
0
0
0
0
0
0
0
0
0
0
0
0
0
0
0
0
0
0
0
0
0
0
0
0
0
0
0
0
0
0
0
0
0
0
0
0
0
0
0
0
0
0
0
0
0
0
0
0
0
0
0
0
0
0
0
0
0
0
0
0
0
0
0
0
0
0
0
0
0
0
0
0
0
0
0
0
0
0
0
0
0
0
0
0
0
0
0
0
0
0
0
0
0
0
0
0
0
0
0
0
0
0
0
0
0
0
0
0
0
0
0
0
0
0
0
0
0
0
0
0
0
0
0
0
0
0
0
0
0
0
0
0
0
0
0
0
0
0
0
0
0
0
0
0
0
0
0
0
0
0
0
0
0
0
0
0
0
0
0
0
0
0
0
0
0
0
0
0
0
0
0
0
0
0
0
0
0
0
0
0
0
0
0
0
0
0
0
0
0
0
0
0
0
0
0
0
0
0
0
0
0
0
0
0
0
0
0
0
0
0
0
0
0
0
0
0
0
0
0
0
0
0
0
0
0
0
0
0
0
0
0
0
0
0
0
0
0
0
0
0
0
0
0
0
0
0
0
0
0
0
0
0
0
0
0
0
0
0
0
0
0
0
0
0
0
0
0
0
0
0
0
0
0
0
0
0
0
0
0
0
0
0
0
0
0
0
0
0
0
0
0
0
0
0
0
0
0
0
0
0
0
0
0
0
0
0
0
0
0
0
0
0
0
0
0
0
0
0
0
0
0
0
0
0
0
0
0
0
0
0
0
0
0
0
0
0
0
0
0
0
0
0
0
0
0
0
0
0
0
0
0
0
0
0
0
0
0
0
0
0
0
0
0
0
0
0
0
0
0
0
0
0
0
0
0
0
0
0
0
0
0
0
0
0
0
0
0
0
0
0
0
0
0
0
0
0
0
0
0
0
0
0
0
0
0
0
0
0
0
0
0
0
0
0
0
0
0
0
0
0
0
0
0
0
0
0
0
0
0
0
0
0
0
0
0
0
0
0
0
0
0
0
0
0
0
0
0
0
0
0
0
0
0
0
0
0
0
0
0
0
0
0
0
0
0
0
0
0
0
0
0
0
0
0
0
0
0
0
0
0
0
0
0
0
0
0
0
0
0
0
0
0
0
0
0
0
0
0
0
0
0
0
0
0
0
0
0
0
0
0
0
0
0
0
0
0
0
0
0
0
0
0
0
0
0
0
0
0
0
0
0
0
0
0
0
0
0
0
0
0
0
0
0
0
0
0
0
0
0
0
0
0
0
0
0
0
0
0
0
0
0
0
0
0
0
0
0
0
0
0
0
0
0
0
0
0
0
0
0
0
0
0
0
0
0
0
0
0
0
0
0
0
0
0
0
0
0
0
0
0
0
0
0
0
0
0
0
0
0
0
0
0
0
0
0
0
0
0
0
0
0
0
0
0
0
0
0
0
0
0
0
0
0
0
0
0
0
0
0
0
0
0
0
0
0
0
0
0
0
0
0
0
0
0
0
0
0
0
0
0
0
0
0
0
0
0
0
0
0
0
0
0
0
0
0
0
0
0
0
0
0
0
0
0
0
0
0
0
0
0
0
0
0
0
0
0
0
0
0
0
0
0
0
0
0
0
0
0
0
0
0
0
0
0
0
0
0
0
0
0
0
0
0
0
0
0
0
0
0
0
0
0
0
0
0
0
0
0
0
0
0
0
0
0
0
0
0
0
0
0
0
0
0
0
0
0
0
0
0
0
0
0
0
0
0
0
0
0
0
0
0
0
0
0
0
0
0
0
0
0
0
0
0
0
0
0
0
0
0
0
0
0
0
0
0
0
0
0
0
0
0
0
0
0
0
0
0
0
0
0
0
0
0
0
0
0
0
0
0
0
0
0
0
0
0
0
0
0
0
0
0
0
0
0
0
0
0
0
0
0
0
0
0
0
0
0
0
0
0
0
0
0
0
0
0
0
0
0
0
0
0
0
0
0
0
0
0
0
0
0
0
0
0
0
0
0
0
0
0
0
0
0
0
0
0
0
0
0
0
0
0
0
0
0
0
0
0
0
0
0
0
0
0
0
0
0
0
0
0
0
0
0
0
0
0
0
0
0
0
0
0
0
0
0
0
0
0
0
0
0
0
0
0
0
0
0
0
0
0
0
0
0
0
0
0
0
0
0
0
0
0
0
0
0
0
0
0
0
0
0
0
0
0
0
0
0
0
0
0
0
0
0
0
0
0
0
0
0
0
0
0
0
0
0
0
0
0
0
0
0
0
0
0
0
0
0
0
0
0
0
0
0
0
0
0
0
0
0
0
0
0
0
0
0
0
0
0
0
0
0
0
0
0
0
0
0
0
0
0
0
0
0
0
0
0
0
0
0
0
0
0
0
0
0
0
0
0
0
0
0
0
0
0
0
0
0
0
0
0
0
0
0
0
0
0
0
0
0
0
0
0
0
0
0
0
0
0
0
0
0
0
0
0
0
0
0
0
0
0
0
0
0
0
0
0
0
0
0
0
0
0
0
0
0
0
0
0
0
0
0
0
0
0
0
0
0
0
0
0
0
0
0
0
0
0
0
0
0
0
0
0
0
0
0
0
0
0
0
0
0
0
0
0
0
0
0
0
0
0
0
0
0
0
0
0
0
0
0
0
0
0
0
0
0
0
0
0
0
0
0
0
0
0
0
0
0
0
0
0
0
0
0
0
0
0
0
0
0
0
0
0
0
0
0
0
0
0
0
0
0
0
0
0
0
0
0
0
0
0
0
0
0
0
0
0
0
0
0
0
0
0
0
0
0
0
0
0
0
0
0
0
0
0
)


5972
(
0
0
0
0
0
0
0
0
0
0
0
0
0
0
0
0
0
0
0
0
0
0
0
0
0
0
0
0
0
0
0
0
0
0
0
0
0
0
0
0
0
0
0
0
0
0
0
0
0
0
0
0
0
0
0
0
0
0
0
0
0
0
0
0
0
0
0
0
0
0
0
0
0
0
0
0
0
0
0
0
0
0
0
0
0
0
0
0
0
0
0
0
0
0
0
0
0
0
0
0
0
0
0
0
0
0
0
0
0
0
0
0
0
0
0
0
0
0
0
0
0
0
0
0
0
0
0
0
0
0
0
0
0
0
0
0
0
0
0
0
0
0
0
0
0
0
0
0
0
0
0
0
0
0
0
0
0
0
0
0
0
0
0
0
0
0
0
0
0
0
0
0
0
0
0
0
0
0
0
0
0
0
0
0
0
0
0
0
0
0
0
0
0
0
0
0
0
0
0
0
0
0
0
0
0
0
0
0
0
0
0
0
0
0
0
0
0
0
0
0
0
0
0
0
0
0
0
0
0
0
0
0
0
0
0
0
0
0
0
0
0
0
0
0
0
0
0
0
0
0
0
0
0
0
0
0
0
0
0
0
0
0
0
0
0
0
0
0
0
0
0
0
0
0
0
0
0
0
0
0
0
0
0
0
0
0
0
0
0
0
0
0
0
0
0
0
0
0
0
0
0
0
0
0
0
0
0
0
0
0
0
0
0
0
0
0
0
0
0
0
0
0
0
0
0
0
0
0
0
0
0
0
0
0
0
0
0
0
0
0
0
0
0
0
0
0
0
0
0
0
0
0
0
0
0
0
0
0
0
0
0
0
0
0
0
0
0
0
0
0
0
0
0
0
0
0
0
0
0
0
0
0
0
0
0
0
0
0
0
0
0
0
0
0
0
0
0
0
0
0
0
0
0
0
0
0
0
0
0
0
0
0
0
0
0
0
0
0
0
0
0
0
0
0
0
0
0
0
0
0
0
0
0
0
0
0
0
0
0
0
0
0
0
0
0
0
0
0
0
0
0
0
0
0
0
0
0
0
0
0
0
0
0
0
0
0
0
0
0
0
0
0
0
0
0
0
0
0
0
0
0
0
0
0
0
0
0
0
0
0
0
0
0
0
0
0
0
0
0
0
0
0
0
0
0
0
0
0
0
0
0
0
0
0
0
0
0
0
0
0
0
0
0
0
0
0
0
0
0
0
0
0
0
0
0
0
0
0
0
0
0
0
0
0
0
0
0
0
0
0
0
0
0
0
0
0
0
0
0
0
0
0
0
0
0
0
0
0
0
0
0
0
0
0
0
0
0
0
0
0
0
0
0
0
0
0
0
0
0
0
0
0
0
0
0
0
0
0
0
0
0
0
0
0
0
0
0
0
0
0
0
0
0
0
0
0
0
0
0
0
0
0
0
0
0
0
0
0
0
0
0
0
0
0
0
0
0
0
0
0
0
0
0
0
0
0
0
0
0
0
0
0
0
0
0
0
0
0
0
0
0
0
0
0
0
0
0
0
0
0
0
0
0
0
0
0
0
0
0
0
0
0
0
0
0
0
0
0
0
0
0
0
0
0
0
0
0
0
0
0
0
0
0
0
0
0
0
0
0
0
0
0
0
0
0
0
0
0
0
0
0
0
0
0
0
0
0
0
0
0
0
0
0
0
0
0
0
0
0
0
0
0
0
0
0
0
0
0
0
0
0
0
0
0
0
0
0
0
0
0
0
0
0
0
0
0
0
0
0
0
0
0
0
0
0
0
0
0
0
0
0
0
0
0
0
0
0
0
0
0
0
0
0
0
0
0
0
0
0
0
0
0
0
0
0
0
0
0
0
0
0
0
0
0
0
0
0
0
0
0
0
0
0
0
0
0
0
0
0
0
0
-122.81323
-131.44627
0
-99.542898
0
0
-24.382329
0
0
0
0
0
0
0
0
0
0
0
0
0
0
0
0
0
0
0
0
0
0
0
0
0
0
0
0
0
0
-101.31272
-140.68205
-124.48941
-144.62531
0
0
0
0
0
0
0
0
-13.243491
0
-19.744744
0
0
-94.269088
0
0
0
0
-109.09795
-121.14856
0
0
0
0
0
0
0
0
0
0
0
0
0
0
0
0
0
0
0
0
0
0
0
0
0
0
0
0
0
0
0
0
0
0
0
0
0
0
0
0
0
0
0
0
0
0
0
0
0
0
0
0
0
0
0
0
0
0
0
0
0
0
0
0
0
0
0
0
0
0
0
0
0
0
0
0
0
0
0
0
0
0
0
0
0
0
0
0
0
0
0
0
0
0
0
0
0
0
0
0
0
0
0
0
0
0
0
0
0
0
0
0
0
0
0
0
0
0
0
0
0
0
0
0
0
0
0
0
0
0
0
0
0
0
0
0
0
0
0
0
0
0
0
0
0
0
0
0
0
0
0
0
0
0
0
0
0
0
0
0
0
0
0
0
0
0
0
0
0
0
0
0
0
0
0
0
0
0
0
0
0
0
0
0
0
0
0
0
0
0
0
0
0
-54.586975
-77.630807
-33.033585
0
0
0
0
0
0
0
0
0
0
0
0
0
0
0
0
0
0
0
-51.235243
0
0
0
0
0
0
0
0
0
0
0
0
0
0
0
0
0
0
0
0
0
0
0
0
0
0
0
0
0
0
0
0
0
0
0
0
0
0
0
0
0
0
0
0
0
0
0
0
0
0
0
0
0
0
0
0
0
0
0
0
0
0
0
0
0
0
0
0
0
0
0
0
0
0
0
0
0
0
0
0
0
0
0
0
0
0
0
0
0
0
0
0
0
0
0
0
0
0
0
0
0
0
0
0
0
0
0
0
0
0
0
0
0
0
0
0
0
0
0
0
0
0
0
0
0
0
0
0
0
0
0
0
0
0
0
0
0
0
0
0
0
0
0
0
0
0
0
0
0
0
0
0
0
0
0
0
0
0
0
0
0
0
0
0
0
0
0
0
0
0
0
0
0
0
0
0
0
0
0
0
0
0
0
0
0
0
0
0
0
0
0
0
0
0
0
0
0
0
0
0
0
0
0
0
0
0
0
0
0
0
0
0
0
0
0
0
0
0
0
0
0
0
0
0
0
0
0
0
0
0
0
0
0
0
0
0
0
0
0
0
0
0
0
0
0
0
0
0
0
0
-74.584327
0
0
-36.327509
0
0
0
-102.98446
-114.12391
-131.89307
-111.33682
-95.091844
0
0
-127.518
-81.052641
-57.141317
-105.91323
-41.035999
0
0
0
-81.011406
-56.309062
-109.18781
-38.383659
-76.119136
-35.033022
-52.509227
-39.650658
0
0
0
-95.129023
0
0
0
0
0
0
0
0
0
0
0
0
0
0
0
0
0
0
0
0
0
0
0
0
0
0
0
0
0
0
0
0
0
0
0
0
-28.458647
0
-17.496119
-48.052969
-26.950779
-34.034217
0
0
0
0
0
0
0
-11.774894
0
0
0
0
0
0
-15.304952
-45.108178
-24.159661
-30.128497
-15.230715
0
-32.742304
0
0
0
0
0
0
0
0
0
0
0
0
0
0
0
0
0
0
0
0
0
0
0
0
0
0
0
0
0
0
0
0
0
0
0
0
0
0
0
0
0
0
0
0
0
0
0
0
0
0
0
0
0
0
0
-106.78837
0
0
0
0
0
0
0
0
0
0
0
0
0
0
0
0
0
0
0
0
0
0
0
0
0
0
0
0
0
0
0
0
0
0
0
0
0
0
0
0
0
0
0
0
0
0
0
0
0
0
0
0
0
0
0
0
0
0
0
0
0
0
0
0
0
0
0
0
0
0
0
0
0
0
0
0
0
0
0
0
0
0
0
0
0
0
0
0
0
0
0
0
0
0
0
0
0
0
0
0
0
0
0
0
0
0
0
0
0
0
0
0
0
0
0
0
0
0
0
0
0
0
0
0
0
0
0
0
0
0
0
0
0
0
0
0
0
0
0
0
0
0
0
0
0
0
0
0
0
0
0
0
0
0
0
0
0
0
0
0
0
0
0
0
0
0
0
0
0
0
0
0
0
0
0
0
0
0
0
0
0
0
0
0
0
0
0
0
0
0
0
0
0
0
0
0
0
0
0
0
0
0
0
0
0
0
0
0
0
0
0
0
0
0
0
0
0
0
0
0
0
0
0
0
0
0
0
0
0
0
0
0
0
0
0
0
0
0
0
0
0
0
0
0
0
0
0
0
0
0
0
0
0
0
0
0
0
0
0
0
0
0
0
0
0
0
0
0
0
0
0
0
0
0
0
0
0
0
0
0
0
0
0
0
0
0
0
0
0
0
0
0
0
0
0
0
0
0
0
0
0
0
0
0
0
0
0
0
0
0
0
0
0
0
0
0
0
0
0
0
0
0
0
0
0
0
0
0
0
0
0
0
0
0
0
0
0
0
0
0
0
0
0
0
0
0
0
0
0
0
0
0
0
0
0
0
0
0
0
0
0
0
0
0
0
0
0
0
0
0
0
0
0
0
0
0
0
0
0
0
0
0
0
0
0
0
0
0
0
0
0
0
0
0
0
0
0
0
0
0
0
0
0
0
0
0
0
0
0
0
0
0
0
0
0
0
0
0
0
0
0
0
0
0
0
0
0
0
0
0
0
0
0
0
0
0
0
0
0
0
0
0
0
0
0
0
0
0
0
0
0
0
0
0
0
0
0
0
0
0
0
0
0
0
-138.87191
0
0
-64.377956
-82.870743
-117.53499
-103.96572
0
0
0
0
0
0
-64.065448
0
0
-121.33864
0
0
0
0
0
0
0
0
0
0
0
0
0
0
0
0
0
0
0
0
0
0
0
0
0
0
0
0
0
0
0
0
0
0
0
0
0
0
0
0
0
0
0
0
0
0
0
0
0
0
0
0
0
0
0
0
0
0
0
0
0
0
0
0
0
0
0
0
0
0
0
0
0
0
0
0
0
0
0
0
0
0
0
0
0
0
0
0
0
0
0
0
0
0
0
0
0
0
0
0
0
0
0
0
0
0
0
0
0
0
0
0
0
0
0
0
0
0
0
0
0
0
0
0
0
0
0
0
0
0
0
0
0
0
0
0
0
0
0
0
0
0
0
0
0
0
0
0
0
0
0
0
0
0
0
0
0
0
0
0
0
0
0
0
0
0
0
0
0
0
0
0
0
0
0
0
0
0
0
0
0
0
0
0
0
0
0
0
0
0
0
0
0
0
0
0
0
0
0
0
0
0
0
0
0
0
0
0
0
0
0
0
0
0
0
0
0
0
0
0
0
0
0
0
0
0
0
0
0
0
0
0
0
0
0
0
0
0
0
0
0
0
0
0
0
0
0
0
0
0
0
0
0
0
0
0
0
0
0
0
0
0
0
0
0
0
0
0
0
0
0
0
0
0
0
0
0
0
0
0
0
0
0
0
0
0
0
0
0
0
0
0
0
0
0
0
0
0
0
0
0
0
0
0
0
0
0
0
0
0
0
0
0
0
0
0
0
0
0
0
0
0
0
0
0
0
0
0
0
0
0
0
0
0
0
0
0
0
0
0
0
0
0
0
0
0
0
0
0
0
0
0
0
0
0
0
0
0
0
0
0
0
0
0
0
0
0
0
0
0
0
0
0
0
0
0
0
0
0
0
0
0
0
0
0
0
0
0
0
0
0
0
0
0
0
0
0
0
0
0
0
0
0
0
0
0
0
0
0
0
0
0
0
0
0
0
0
0
0
0
0
0
0
0
0
0
0
0
0
0
0
0
0
0
0
0
0
0
0
0
0
0
-17.382023
0
0
0
0
0
0
0
0
0
0
0
0
0
0
0
0
0
0
0
0
0
0
0
0
0
0
0
0
0
0
0
0
0
0
0
0
0
0
0
0
0
0
0
0
0
0
0
0
0
0
0
0
0
0
0
0
0
0
0
0
0
0
0
0
0
0
0
0
0
0
0
0
0
0
0
0
0
0
0
0
0
0
0
0
0
0
0
0
0
0
0
0
0
0
0
0
0
0
0
0
0
0
0
0
0
0
0
0
0
0
0
0
0
0
0
0
0
0
0
0
0
0
0
0
0
0
0
0
0
0
0
0
0
0
0
0
0
0
0
0
0
0
0
0
0
0
0
0
0
0
0
0
0
0
0
0
0
0
0
0
0
0
0
0
0
0
0
0
0
0
0
0
0
0
0
0
-59.335815
-58.490986
-51.388764
-67.04638
0
0
0
0
0
0
0
0
0
0
0
0
0
0
0
0
0
0
0
0
0
0
0
0
0
0
0
0
0
0
0
0
0
0
0
0
0
0
0
0
0
0
0
0
0
0
0
0
0
0
0
0
0
0
0
0
0
0
0
0
0
0
0
0
0
0
0
0
0
0
0
0
0
0
0
0
0
0
0
0
0
0
0
0
0
0
0
0
0
0
0
0
0
0
0
0
0
0
0
0
0
0
0
0
0
0
0
0
0
0
0
0
0
0
0
0
0
0
0
0
0
0
0
0
0
0
0
0
0
0
0
0
0
0
0
0
0
0
0
0
0
0
0
0
0
0
0
0
0
0
0
0
0
0
0
0
0
0
0
0
0
0
0
0
0
0
0
0
0
0
0
0
0
0
0
0
0
0
0
0
0
0
0
0
0
0
0
0
0
0
0
0
0
0
0
0
0
0
0
0
0
0
0
0
0
0
0
0
0
0
0
0
0
0
0
0
0
0
0
0
0
0
0
0
0
0
0
0
0
0
0
0
0
0
0
0
0
0
0
0
0
0
0
0
0
0
0
-89.120545
-65.23709
-75.610099
-77.591025
0
0
0
0
0
0
0
0
0
0
0
0
0
0
0
0
0
0
0
0
0
0
0
0
0
0
0
0
0
0
0
0
0
0
0
0
0
0
0
0
0
0
0
0
0
0
0
0
0
0
0
0
0
0
0
0
0
0
0
0
0
0
0
0
0
0
0
0
0
0
0
0
0
0
0
0
0
0
0
0
0
0
0
0
0
0
0
0
0
0
0
0
0
0
0
0
0
0
0
0
0
0
0
0
0
0
0
0
0
0
0
0
0
0
0
0
0
0
0
0
0
0
0
0
0
0
0
0
0
0
0
0
0
0
0
0
0
0
0
0
0
0
0
0
0
0
0
0
0
0
0
0
0
0
0
0
0
0
0
0
0
0
0
0
0
0
0
0
0
0
0
0
0
0
0
0
0
0
0
0
0
0
0
0
0
0
0
0
0
0
0
0
0
0
0
0
0
0
0
0
0
0
0
0
0
0
0
0
0
0
0
0
0
0
0
0
0
0
0
0
0
0
0
0
0
0
0
0
0
0
0
0
0
0
0
0
0
0
0
0
0
0
0
0
0
-137.70081
-135.50191
-146.89749
-103.37854
-148.00217
-116.9166
-136.97577
-139.11016
-121.54023
-135.15735
-129.39101
-137.20262
-139.43764
-125.62632
-135.98355
-136.55522
-137.61418
-131.38753
-123.93474
0
0
0
-95.930864
-95.320032
-119.87223
-131.36786
-122.75252
-95.097637
-113.96085
-110.56019
-125.95656
-126.49412
-138.96629
-130.11478
-127.97309
-132.25091
0
0
0
0
-34.356969
0
0
-25.32893
-29.109073
-22.352734
-33.59798
0
0
0
0
0
0
0
0
0
0
0
0
-31.781892
-36.310618
0
0
0
-26.879241
0
-20.312872
-31.866889
0
-124.62285
-98.46227
-107.81938
-122.12837
-128.32067
-119.80319
-103.36541
-149.52079
-151.56766
-153.99678
-144.83756
-151.36089
-155.30082
-153.50535
-129.48264
-115.0865
-138.54409
-118.16987
-134.04829
-134.43522
-108.8188
-145.37253
-142.18335
-147.72225
-160.82835
-158.56736
-148.06027
-140.79476
0
0
0
0
0
0
0
0
0
0
0
0
0
0
0
0
0
0
0
0
0
0
0
0
0
0
0
0
0
0
0
0
0
0
0
0
0
0
0
0
0
0
0
0
0
0
0
0
-13.210365
-15.157803
-14.829734
0
-16.909566
0
-11.683755
0
0
0
0
0
0
0
-14.888381
-16.527426
-22.36879
0
-17.412777
-18.768769
0
0
0
0
0
0
0
0
0
-115.37656
0
0
-90.808442
-88.659251
0
0
0
0
0
-65.305215
0
0
0
0
0
0
0
0
0
0
0
0
0
0
0
0
-108.40366
-133.35229
-113.20356
0
-139.06633
-102.05961
0
-113.92304
0
-116.91519
-149.38073
-143.75673
0
-114.22626
0
0
0
0
0
0
0
0
0
0
0
0
0
0
-58.060615
0
0
0
-47.838139
-56.391713
-58.009032
-50.660306
-36.479234
-42.144317
-43.694138
-67.49361
-84.70614
-73.268235
-75.713229
-58.117345
-56.606718
-62.36412
-48.244814
-57.237307
-49.711265
-65.389134
-58.009037
-44.015976
-48.167077
-58.479615
-66.703976
-69.48003
-83.201011
-70.060656
-71.434678
-66.236578
-74.289215
-50.089589
-39.82495
-34.860452
-41.015333
-41.12671
-49.308343
-42.443935
0
0
0
0
0
0
0
0
0
0
0
0
0
0
0
0
0
0
0
0
0
0
0
0
0
0
-81.494955
-68.192494
0
0
0
0
0
0
0
-53.198239
0
0
0
0
-76.154222
0
0
0
0
0
0
0
0
0
0
0
-46.406305
-56.954512
-42.553792
-49.782713
0
0
0
0
0
-62.241091
0
0
0
0
0
0
-36.834969
0
0
0
0
0
0
0
0
0
0
0
0
0
0
0
0
0
0
-67.872407
-67.121379
-55.864639
-53.396851
-51.885331
0
0
0
0
0
0
-39.193112
0
0
0
0
0
0
-45.937667
0
0
-32.300515
-45.472978
-33.670147
-42.46143
-42.472933
0
0
0
0
0
0
0
0
0
0
0
0
0
0
0
-94.796422
-85.247778
-111.10925
-115.35237
-120.92821
-91.727917
-90.443808
0
0
-121.85885
-117.49934
-122.30535
0
0
-97.430849
-103.76136
-120.44103
-125.74227
-124.58359
-97.033805
-97.206609
0
0
-115.1032
-114.17482
-119.08656
0
0
-101.09075
-93.984497
-84.565262
-115.7118
-114.83187
-87.595042
-95.77443
-91.069457
0
0
0
-71.358491
-73.798019
-91.03553
-86.302792
-69.396347
-71.283416
0
-72.64103
-79.13249
-73.375914
-111.42322
-131.60465
-144.76843
-97.621359
-132.59887
-101.31292
-117.74782
-66.097829
-79.825384
-86.236312
-62.98368
-83.45923
-66.848297
-63.582163
-59.786937
-57.034324
-69.202427
-50.408728
-59.746445
-51.095211
-68.296315
-73.880827
-94.41617
-101.40992
-86.461144
-90.379916
-75.836237
-83.790524
-51.858469
-49.614382
-44.287808
-42.85343
-51.980124
-50.431165
-45.599692
0
0
0
0
0
0
0
0
0
0
0
0
0
0
0
0
0
0
0
0
0
-64.302085
-76.446316
-87.62176
-61.113178
-57.953556
-82.861087
-66.255381
-59.124885
-54.222534
-69.193527
-48.963092
-59.930542
-46.434758
-69.074927
-75.893336
-99.778262
-97.068696
-87.976479
-90.416872
-76.490853
-88.379293
-50.118105
-34.928582
-48.056944
-42.354194
-45.785382
-51.478589
-39.495358
-58.351946
-76.523293
-70.450923
-59.093062
-54.711648
-73.040343
-61.10377
-48.182587
-39.641088
-42.324973
-35.84938
-48.752438
-43.708485
-39.497647
-56.41674
-60.909829
-47.423278
-64.997285
-55.719581
-50.925014
-68.877426
-48.569117
-47.870971
-37.7343
-41.764301
-45.763364
-49.672952
-40.52143
0
-77.451202
-81.194173
-106.22072
0
0
-82.371752
0
0
0
0
0
0
0
0
0
0
0
0
0
0
0
0
-102.85033
0
0
0
0
0
0
0
0
0
0
0
0
0
-18.179506
0
0
0
0
0
0
0
0
0
0
0
0
-24.378001
-23.362362
-26.529104
0
-19.311234
-21.051014
0
0
0
0
0
0
0
-28.069135
-19.495495
-20.030898
-22.994904
-22.238325
-26.201204
-24.674804
-37.82009
-50.069009
-40.571648
-42.693854
-42.603147
-44.713448
-36.044837
-31.587706
-22.808324
-29.24088
-33.585852
-25.226484
-35.573183
-29.597731
-33.4943
-28.220615
-37.864806
-35.766182
-39.747008
-31.996611
-29.602606
0
0
0
0
0
0
0
0
0
0
0
0
0
0
0
-13.518344
0
0
-10.262198
-11.901682
0
0
0
0
0
0
-10.299831
0
0
0
0
0
0
0
0
0
0
0
0
0
0
0
0
0
-17.647118
-20.688014
0
-23.55954
0
-27.646086
-40.838998
-36.097336
-39.411592
-31.132502
-34.984419
-32.242058
0
0
-20.170034
-30.224684
0
-26.561035
0
-24.407246
-25.62571
-25.309403
-34.320532
-29.792014
-21.312647
-28.687038
-20.171919
-17.203494
-20.517748
-13.230609
-18.294024
-22.238717
-15.030839
-23.981556
-30.087791
-28.848599
0
-22.099647
-30.958197
-22.3954
-25.947352
-26.390968
-30.837365
-34.276832
-32.625738
-24.496067
-27.774838
-17.900481
0
0
0
-15.672384
-15.66149
-13.113211
0
0
0
0
0
0
0
0
0
0
0
0
0
0
0
0
0
0
0
0
0
0
0
0
0
0
0
0
0
0
0
0
0
0
0
0
0
0
0
0
0
0
0
0
-129.86432
0
-94.002779
-104.90682
0
0
0
0
0
0
0
0
0
0
0
0
0
0
0
0
0
0
0
0
0
0
0
0
0
0
0
0
0
0
0
0
0
0
0
0
0
0
0
0
0
0
-98.94825
0
0
0
0
-125.2053
-111.55893
0
0
0
-115.41658
0
0
0
0
0
-109.36129
-124.80378
-141.40986
-121.90575
0
0
0
0
0
0
0
0
0
0
0
-119.00609
0
0
0
0
-101.37182
-106.36883
-117.06972
-89.583762
-103.42843
-100.64855
-87.470794
-119.24133
-86.883146
-63.198033
-70.54658
-79.016369
-72.104533
-77.243901
-85.273453
-96.983691
-95.721225
-76.270708
-92.287341
-83.014206
-107.8261
-89.022413
-103.47598
-112.62997
-97.327583
-129.34215
-123.72383
-94.017687
-104.43131
-109.9274
-99.638725
-119.06584
-117.67013
-121.49278
-116.45803
-102.60861
-117.3231
-132.93579
-125.74857
-134.68695
0
0
0
0
0
0
0
0
0
0
0
-110.34172
-102.52389
0
-130.57808
0
0
0
0
0
0
0
0
0
-95.08294
0
0
0
-112.42597
0
0
0
-111.18168
0
0
-121.42088
-126.57524
-136.93879
0
-150.88099
0
0
0
0
0
0
0