/*--------------------------------*- C++ -*----------------------------------*\
  =========                 |
  \\      /  F ield         | OpenFOAM: The Open Source CFD Toolbox
   \\    /   O peration     | Website:  https://openfoam.org
    \\  /    A nd           | Version:  8
     \\/     M anipulation  |
\*---------------------------------------------------------------------------*/
/*   Windows 32 and 64 bit porting by blueCAPE: http://www.bluecape.com.pt   *\
|  Based on Windows porting (2.0.x v4) by Symscape: http://www.symscape.com   |
\*---------------------------------------------------------------------------*/
FoamFile
{
    version     2.0;
    format      ascii;
    class       scalarListList;
    location    "constant/vegetation";
    object      sunViewCoeff;
}
// * * * * * * * * * * * * * * * * * * * * * * * * * * * * * * * * * * * * * //


5
(

834
(
501.05251
0
501.05251
0
0
0
0
0
501.05251
501.05251
501.05251
501.05251
203.33805
501.05251
501.05251
249.58958
0
0
0
0
501.05251
501.05251
0
501.05251
501.05251
0
104.38274
501.05251
0
0
0
0
0
0
0
0
501.05251
0
501.05251
0
0
0
0
0
0
0
0
0
0
0
0
0
0
0
0
0
0
0
0
0
0
0
0
0
0
0
0
0
0
0
0
0
0
0
0
0
0
0
0
0
0
0
0
0
0
0
0
0
0
0
0
0
0
0
0
0
0
0
0
0
0
0
0
0
0
0
0
0
0
0
0
0
0
0
0
0
0
0
0
0
0
0
0
0
0
0
0
0
0
0
0
0
0
0
0
0
0
0
0
0
0
0
0
0
0
0
0
0
0
0
0
0
0
0
0
0
0
0
0
0
0
0
0
0
0
0
0
0
0
0
0
0
0
0
0
0
0
0
0
0
0
0
0
0
0
0
0
0
0
0
0
0
0
0
0
0
0
0
0
0
0
0
0
0
0
0
0
0
0
0
0
0
0
0
0
0
0
0
0
0
0
0
0
0
0
0
0
0
0
0
0
0
0
0
0
0
0
0
0
0
0
0
0
0
0
0
0
0
0
0
0
0
0
0
0
0
0
0
0
0
0
0
0
0
0
0
0
0
0
0
0
0
0
0
0
0
0
0
0
0
0
0
0
0
0
0
0
0
0
0
0
0
0
0
0
0
0
0
0
0
0
0
0
0
0
0
0
0
0
0
0
0
0
0
0
0
0
0
0
0
0
0
0
0
0
0
0
0
0
0
0
0
0
0
0
0
501.05251
501.05251
501.05251
0
0
0
0
0
0
0
0
0
0
0
0
0
501.05251
501.05251
0
0
0
0
501.05251
0
0
0
0
0
0
0
0
0
0
0
0
0
0
0
0
0
0
0
0
0
0
0
0
0
0
501.05251
501.05251
501.05251
501.05251
501.05251
501.05251
501.05251
501.05251
501.05251
501.05251
501.05251
0
0
0
0
501.05251
501.05251
501.05251
501.05251
501.05251
0
0
0
0
0
0
0
0
0
0
0
0
501.05251
501.05251
501.05251
501.05251
501.05251
501.05251
501.05251
501.05251
501.05251
501.05251
501.05251
501.05251
501.05251
501.05251
501.05251
501.05251
501.05251
501.05251
0
501.05251
0
501.05251
501.05251
501.05251
501.05251
0
501.05251
501.05251
0
501.05251
501.05251
0
0
501.05251
0
501.05251
501.05251
501.05251
0
0
0
0
0
0
0
501.05251
0
501.05251
0
0
0
0
0
0
0
501.05251
501.05251
0
0
501.05251
501.05251
501.05251
0
0
0
0
501.05251
0
501.05251
0
501.05251
0
0
0
0
0
0
0
0
0
0
0
0
0
0
0
0
0
501.05251
501.05251
0
501.05251
0
501.05251
501.05251
501.05251
501.05251
501.05251
0
501.05251
501.05251
0
501.05251
0
0
501.05251
501.05251
501.05251
0
501.05251
0
501.05251
0
0
501.05251
0
0
0
0
0
0
0
0
0
0
0
0
0
0
0
0
0
0
0
0
0
501.05251
501.05251
501.05251
501.05251
501.05251
501.05251
0
0
0
501.05251
501.05251
501.05251
501.05251
501.05251
501.05251
0
0
0
0
0
0
0
0
0
0
0
501.05251
501.05251
501.05251
501.05251
501.05251
501.05251
0
501.05251
501.05251
501.05251
501.05251
501.05251
501.05251
0
0
0
0
0
0
0
0
0
0
0
0
0
0
0
501.05251
501.05251
501.05251
501.05251
501.05251
501.05251
0
0
0
0
501.05251
501.05251
501.05251
501.05251
501.05251
501.05251
501.05251
501.05251
501.05251
501.05251
501.05251
501.05251
501.05251
501.05251
501.05251
501.05251
501.05251
501.05251
501.05251
501.05251
501.05251
501.05251
501.05251
501.05251
501.05251
501.05251
501.05251
501.05251
501.05251
501.05251
501.05251
501.05251
501.05251
501.05251
501.05251
501.05251
501.05251
501.05251
501.05251
501.05251
501.05251
501.05251
501.05251
501.05251
501.05251
501.05251
501.05251
501.05251
501.05251
501.05251
501.05251
501.05251
501.05251
501.05251
501.05251
501.05251
501.05251
501.05251
501.05251
501.05251
501.05251
501.05251
0
0
0
0
0
0
0
0
0
0
0
0
0
0
0
0
0
0
0
0
0
0
0
0
0
0
0
0
0
0
0
0
0
0
0
0
0
0
0
0
0
0
0
0
0
0
0
0
0
0
0
0
0
0
0
0
0
0
0
0
0
0
0
0
0
0
0
0
0
0
0
0
0
0
0
0
0
0
0
0
0
0
0
0
0
0
0
0
0
0
0
0
0
0
0
0
0
0
0
0
0
0
0
0
0
0
0
0
0
0
0
0
0
0
0
0
0
0
0
0
0
0
0
0
0
0
0
0
0
0
0
0
0
0
0
0
0
0
0
0
0
0
0
0
0
0
0
0
0
0
0
0
0
0
0
)


834
(
284.54856
284.54856
284.54856
284.54856
284.54856
284.54856
284.54856
284.54856
284.54856
284.54856
284.54856
284.54856
284.54856
284.54856
284.54856
284.54856
16.868557
284.54856
0
0
284.54856
284.54856
0
284.54856
284.54856
284.54856
284.54856
284.54856
0
284.54856
284.54856
0
0
284.54856
0
0
284.54856
0
284.54856
0
0
23.719504
23.719504
23.719504
23.719504
23.719504
23.719504
23.719504
23.719504
23.719504
23.719504
23.719504
23.719504
23.719504
23.719504
23.719504
23.719504
23.719504
23.719504
23.719504
23.719504
23.719504
23.719504
23.719504
23.719504
23.719504
23.719504
0
23.719504
23.719504
23.719504
23.719504
0
23.719504
0
23.719504
23.719504
23.719504
23.719504
23.719504
23.719504
23.719504
23.719504
23.719504
23.719504
23.719504
23.719504
23.719504
23.719504
23.719504
23.719504
23.719504
23.719504
23.719504
23.719504
23.719504
0
0
23.719504
23.719504
0
23.719504
23.719504
23.719504
23.719504
23.719504
23.719504
23.719504
23.719504
23.719504
23.719504
23.719504
23.719504
23.719504
23.719504
0
0
23.719504
23.719504
0
0
0
0
23.719504
23.719504
23.719504
23.719504
23.719504
23.719504
23.719504
23.719504
23.719504
23.719504
23.719504
0
0
0
0
0
23.719504
23.719504
23.719504
23.719504
23.719504
23.719504
23.719504
23.719504
0
0
0
0
23.719504
23.719504
23.719504
23.719504
23.719504
23.719504
23.719504
0
0
0
0
23.719504
0
0
23.719504
23.719504
23.719504
23.719504
23.719504
0
0
0
23.719504
0
0
23.719504
0
0
23.719504
23.719504
23.719504
23.719504
23.719504
23.719504
0
0
0
0
0
0
0
0
0
0
0
0
0
0
0
0
23.719504
0
0
23.719504
0
0
0
0
0
0
23.719504
23.719504
23.719504
23.719504
23.719504
0
0
0
0
0
0
0
0
0
0
23.719504
0
0
0
0
0
0
0
0
0
0
23.719504
23.719504
23.719504
23.719504
23.719504
23.719504
23.719504
0
0
0
0
0
0
23.719504
0
0
0
0
0
0
23.719504
23.719504
23.719504
0
23.719504
0
0
0
0
23.719504
23.719504
23.719504
23.719504
23.719504
23.719504
23.719504
23.719504
23.719504
23.719504
23.719504
23.719504
23.719504
23.719504
23.719504
23.719504
23.719504
23.719504
23.719504
23.719504
23.719504
0
0
0
0
0
0
0
0
0
0
0
0
23.719504
23.719504
23.719504
23.719504
23.719504
23.719504
0
0
0
0
0
0
0
0
0
0
0
0
0
0
0
0
0
0
0
0
0
0
0
0
0
0
0
0
23.719504
23.719504
23.719504
284.54856
284.54856
284.54856
23.719504
23.719504
23.719504
23.719504
23.719504
23.719504
23.719504
23.719504
23.719504
23.719504
23.719504
23.719504
23.719504
284.54856
284.54856
23.719504
23.719504
23.719504
23.719504
284.54856
23.719504
23.719504
23.719504
23.719504
23.719504
23.719504
23.719504
23.719504
23.719504
23.719504
23.719504
23.719504
23.719504
23.719504
23.719504
23.719504
23.719504
23.719504
23.719504
23.719504
23.719504
23.719504
23.719504
23.719504
23.719504
23.719504
284.54856
284.54856
284.54856
284.54856
284.54856
284.54856
284.54856
284.54856
284.54856
284.54856
284.54856
23.719504
23.719504
23.719504
23.719504
284.54856
284.54856
284.54856
284.54856
284.54856
0
0
0
23.719504
23.719504
23.719504
23.719504
23.719504
23.719504
23.719504
23.719504
23.719504
284.54856
284.54856
284.54856
284.54856
284.54856
284.54856
284.54856
284.54856
284.54856
284.54856
284.54856
284.54856
284.54856
284.54856
284.54856
284.54856
284.54856
284.54856
23.719504
284.54856
23.719504
284.54856
284.54856
284.54856
284.54856
23.719504
284.54856
284.54856
23.719504
284.54856
284.54856
0
0
284.54856
0
284.54856
284.54856
284.54856
23.719504
23.719504
23.719504
23.719504
23.719504
23.719504
0
284.54856
0
284.54856
23.719504
0
0
0
23.719504
0
0
284.54856
284.54856
23.719504
23.719504
284.54856
284.54856
284.54856
23.719504
0
0
0
284.54856
0
284.54856
0
284.54856
0
23.719504
23.719504
0
0
0
0
0
0
0
0
0
0
0
0
0
0
284.54856
284.54856
23.719504
284.54856
23.719504
284.54856
284.54856
284.54856
284.54856
284.54856
0
284.54856
284.54856
0
284.54856
0
0
284.54856
284.54856
284.54856
0
284.54856
0
284.54856
0
0
284.54856
0
0
0
0
0
0
0
0
23.719504
23.719504
23.719504
23.719504
23.719504
23.719504
23.719504
23.719504
23.719504
23.719504
23.719504
23.719504
23.719504
284.54856
284.54856
284.54856
284.54856
284.54856
284.54856
23.719504
23.719504
23.719504
284.54856
284.54856
284.54856
284.54856
284.54856
284.54856
23.719504
23.719504
23.719504
23.719504
23.719504
23.719504
23.719504
23.719504
23.719504
23.719504
23.719504
284.54856
284.54856
284.54856
284.54856
284.54856
284.54856
23.719504
284.54856
284.54856
284.54856
284.54856
284.54856
284.54856
23.719504
23.719504
23.719504
23.719504
0
0
0
0
0
0
0
0
0
0
0
284.54856
284.54856
284.54856
284.54856
284.54856
284.54856
0
0
0
0
284.54856
284.54856
284.54856
284.54856
284.54856
284.54856
284.54856
284.54856
284.54856
284.54856
284.54856
284.54856
284.54856
284.54856
284.54856
284.54856
284.54856
284.54856
284.54856
284.54856
284.54856
284.54856
284.54856
284.54856
284.54856
284.54856
284.54856
284.54856
284.54856
284.54856
284.54856
284.54856
284.54856
284.54856
284.54856
284.54856
284.54856
284.54856
284.54856
284.54856
284.54856
284.54856
284.54856
284.54856
284.54856
284.54856
284.54856
284.54856
284.54856
284.54856
284.54856
284.54856
284.54856
284.54856
284.54856
284.54856
284.54856
284.54856
284.54856
284.54856
284.54856
284.54856
0
0
0
0
0
0
0
0
0
0
0
0
0
0
0
0
0
0
0
0
0
0
0
0
0
0
0
0
0
0
0
0
0
0
0
0
0
0
0
0
0
0
0
0
0
0
0
0
0
0
0
0
0
0
0
0
0
0
0
0
0
0
0
0
0
0
0
0
0
0
0
0
0
0
0
0
0
0
0
0
0
0
0
0
0
0
0
0
0
0
0
0
0
0
0
0
0
0
0
0
0
0
0
0
0
0
0
0
0
0
0
0
0
0
0
0
0
0
0
0
0
0
0
0
0
0
0
0
0
0
0
0
0
0
0
0
0
0
0
0
0
0
0
0
0
0
0
0
0
0
0
0
0
0
0
)


834
(
247.54772
247.54772
247.54772
247.54772
247.54772
247.54772
247.54772
247.54772
247.54772
247.54772
247.54772
247.54772
247.54772
247.54772
247.54772
247.54772
222.57886
247.54772
130.59109
0
247.54772
247.54772
161.35779
247.54772
247.54772
247.54772
247.54772
247.54772
82.774347
247.54772
247.54772
0
0
247.54772
0
0
247.54772
0
247.54772
0
0
83.269254
83.269254
83.269254
83.269254
83.269254
83.269254
83.269254
83.269254
83.269254
83.269254
83.269254
83.269254
83.269254
83.269254
83.269254
83.269254
83.269254
83.269254
83.269254
83.269254
83.269254
83.269254
83.269254
83.269254
83.269254
83.269254
0
83.269254
83.269254
83.269254
83.269254
0
83.269254
0
83.269254
83.269254
83.269254
83.269254
83.269254
83.269254
83.269254
83.269254
83.269254
83.269254
83.269254
83.269254
83.269254
83.269254
83.269254
83.269254
83.269254
83.269254
83.269254
83.269254
83.269254
0
0
83.269254
83.269254
0
83.269254
83.269254
83.269254
83.269254
83.269254
83.269254
83.269254
83.269254
83.269254
83.269254
83.269254
83.269254
83.269254
83.269254
0
0
83.269254
83.269254
0
0
0
0
83.269254
83.269254
83.269254
83.269254
83.269254
83.269254
83.269254
83.269254
83.269254
83.269254
83.269254
0
0
0
0
0
83.269254
83.269254
83.269254
83.269254
83.269254
83.269254
83.269254
83.269254
0
0
0
0
83.269254
83.269254
83.269254
83.269254
83.269254
83.269254
83.269254
0
0
0
0
83.269254
0
0
83.269254
83.269254
83.269254
83.269254
83.269254
0
0
0
83.269254
0
0
83.269254
0
0
83.269254
83.269254
83.269254
83.269254
83.269254
83.269254
0
0
0
0
0
0
0
0
0
0
0
0
0
0
0
0
83.269254
0
0
83.269254
0
0
0
0
0
0
83.269254
83.269254
83.269254
83.269254
83.269254
0
0
0
0
0
0
0
0
0
0
83.269254
0
0
0
0
0
0
0
0
0
0
83.269254
83.269254
83.269254
83.269254
83.269254
83.269254
83.269254
0
0
0
0
0
0
83.269254
0
0
0
0
0
0
83.269254
83.269254
83.269254
0
83.269254
0
0
0
0
83.269254
83.269254
83.269254
83.269254
83.269254
83.269254
83.269254
83.269254
83.269254
83.269254
83.269254
83.269254
83.269254
83.269254
83.269254
83.269254
83.269254
83.269254
83.269254
83.269254
83.269254
0
0
0
0
0
0
0
0
0
0
0
0
83.269254
83.269254
83.269254
83.269254
83.269254
83.269254
0
0
0
0
0
0
0
0
0
0
0
0
0
0
0
0
0
0
0
0
0
0
0
0
0
0
0
0
83.269254
83.269254
83.269254
247.54772
247.54772
247.54772
83.269254
83.269254
83.269254
83.269254
83.269254
83.269254
83.269254
83.269254
83.269254
83.269254
83.269254
83.269254
83.269254
247.54772
247.54772
83.269254
83.269254
83.269254
83.269254
247.54772
83.269254
83.269254
83.269254
83.269254
83.269254
83.269254
83.269254
83.269254
83.269254
83.269254
83.269254
83.269254
83.269254
83.269254
83.269254
83.269254
83.269254
83.269254
83.269254
83.269254
83.269254
83.269254
83.269254
83.269254
83.269254
83.269254
247.54772
247.54772
247.54772
247.54772
247.54772
247.54772
247.54772
247.54772
247.54772
247.54772
247.54772
83.269254
83.269254
83.269254
83.269254
247.54772
247.54772
247.54772
247.54772
247.54772
0
0
0
83.269254
83.269254
83.269254
83.269254
83.269254
83.269254
83.269254
83.269254
83.269254
247.54772
247.54772
247.54772
247.54772
247.54772
247.54772
247.54772
247.54772
247.54772
247.54772
247.54772
247.54772
247.54772
247.54772
247.54772
247.54772
247.54772
247.54772
83.269254
247.54772
83.269254
247.54772
247.54772
247.54772
247.54772
83.269254
247.54772
247.54772
83.269254
247.54772
247.54772
0
0
247.54772
0
247.54772
247.54772
247.54772
83.269254
83.269254
83.269254
83.269254
83.269254
83.269254
0
247.54772
0
247.54772
83.269254
0
0
0
83.269254
0
0
247.54772
247.54772
83.269254
83.269254
247.54772
247.54772
247.54772
83.269254
0
0
0
247.54772
0
247.54772
0
247.54772
0
83.269254
83.269254
0
0
0
0
0
0
0
0
0
0
0
0
0
0
247.54772
247.54772
83.269254
247.54772
83.269254
247.54772
247.54772
247.54772
247.54772
247.54772
0
247.54772
247.54772
0
247.54772
0
0
247.54772
247.54772
247.54772
0
247.54772
0
247.54772
0
0
247.54772
0
0
0
0
0
0
0
0
83.269254
83.269254
83.269254
83.269254
83.269254
83.269254
83.269254
83.269254
83.269254
83.269254
83.269254
83.269254
83.269254
247.54772
247.54772
247.54772
247.54772
247.54772
247.54772
83.269254
83.269254
83.269254
247.54772
247.54772
247.54772
247.54772
247.54772
247.54772
83.269254
83.269254
83.269254
83.269254
83.269254
83.269254
83.269254
83.269254
83.269254
83.269254
83.269254
247.54772
247.54772
247.54772
247.54772
247.54772
247.54772
83.269254
247.54772
247.54772
247.54772
247.54772
247.54772
247.54772
83.269254
83.269254
83.269254
83.269254
0
0
0
0
0
0
0
0
0
0
0
247.54772
247.54772
247.54772
247.54772
247.54772
247.54772
0
0
0
0
247.54772
247.54772
247.54772
247.54772
247.54772
247.54772
247.54772
247.54772
247.54772
247.54772
247.54772
247.54772
247.54772
247.54772
247.54772
247.54772
247.54772
247.54772
247.54772
247.54772
247.54772
247.54772
247.54772
247.54772
247.54772
247.54772
247.54772
247.54772
247.54772
247.54772
247.54772
247.54772
247.54772
247.54772
247.54772
247.54772
247.54772
247.54772
247.54772
247.54772
247.54772
247.54772
247.54772
247.54772
247.54772
247.54772
247.54772
247.54772
247.54772
247.54772
247.54772
247.54772
247.54772
247.54772
247.54772
247.54772
247.54772
247.54772
247.54772
247.54772
247.54772
247.54772
0
0
0
0
0
0
0
0
0
0
0
0
0
0
0
0
0
0
0
0
0
0
0
0
0
0
0
0
0
0
0
0
0
0
0
0
0
0
0
0
0
0
0
0
0
0
0
0
0
0
0
0
0
0
0
0
0
0
0
0
0
0
0
0
0
0
0
0
0
0
0
0
0
0
0
0
0
0
0
0
0
0
0
0
0
0
0
0
0
0
0
0
0
0
0
0
0
0
0
0
0
0
0
0
0
0
0
0
0
0
0
0
0
0
0
0
0
0
0
0
0
0
0
0
0
0
0
0
0
0
0
0
0
0
0
0
0
0
0
0
0
0
0
0
0
0
0
0
0
0
0
0
0
0
0
)


834
(
218.93877
218.93877
218.93877
218.93877
218.93877
218.93877
218.93877
218.93877
218.93877
218.93877
218.93877
218.93877
218.93877
218.93877
218.93877
218.93877
208.90108
218.93877
218.93877
218.93877
218.93877
218.93877
201.99025
218.93877
218.93877
218.93877
218.93877
218.93877
147.41011
218.93877
218.93877
67.506027
0
218.93877
0
166.97254
218.93877
0
218.93877
89.612935
0
136.63498
136.63498
136.63498
136.63498
136.63498
136.63498
136.63498
136.63498
136.63498
136.63498
136.63498
136.63498
136.63498
136.63498
136.63498
136.63498
136.63498
136.63498
136.63498
136.63498
136.63498
136.63498
136.63498
136.63498
136.63498
136.63498
0
136.63498
136.63498
136.63498
136.63498
0
136.63498
0
136.63498
136.63498
136.63498
136.63498
136.63498
136.63498
136.63498
136.63498
136.63498
136.63498
136.63498
136.63498
136.63498
136.63498
136.63498
136.63498
136.63498
136.63498
136.63498
136.63498
136.63498
0
0
136.63498
136.63498
0
136.63498
136.63498
136.63498
136.63498
136.63498
136.63498
136.63498
136.63498
136.63498
136.63498
136.63498
136.63498
136.63498
136.63498
0
0
136.63498
136.63498
0
0
0
0
136.63498
136.63498
136.63498
136.63498
136.63498
136.63498
136.63498
136.63498
136.63498
136.63498
136.63498
0
0
0
0
0
136.63498
136.63498
136.63498
136.63498
136.63498
136.63498
136.63498
136.63498
0
0
0
0
136.63498
136.63498
136.63498
136.63498
136.63498
136.63498
136.63498
0
0
0
0
136.63498
0
0
136.63498
136.63498
136.63498
136.63498
136.63498
0
0
0
136.63498
0
0
136.63498
0
0
136.63498
136.63498
136.63498
136.63498
136.63498
136.63498
0
0
0
0
0
0
0
0
0
0
0
0
0
0
0
0
136.63498
0
0
136.63498
0
0
0
0
0
0
136.63498
136.63498
136.63498
136.63498
136.63498
0
0
0
0
0
0
0
0
0
0
136.63498
0
0
0
0
0
0
0
0
0
0
136.63498
136.63498
136.63498
136.63498
136.63498
136.63498
136.63498
0
0
0
0
0
0
136.63498
0
0
0
0
0
0
136.63498
136.63498
136.63498
0
136.63498
0
0
0
0
136.63498
136.63498
136.63498
136.63498
136.63498
136.63498
136.63498
136.63498
136.63498
136.63498
136.63498
136.63498
136.63498
136.63498
136.63498
136.63498
136.63498
136.63498
136.63498
136.63498
136.63498
0
0
0
0
0
0
0
0
0
0
0
0
136.63498
136.63498
136.63498
136.63498
136.63498
136.63498
0
0
0
0
0
0
0
0
0
0
0
0
0
0
0
0
0
0
0
0
0
0
0
0
0
0
0
0
136.63498
136.63498
136.63498
218.93877
218.93877
218.93877
136.63498
136.63498
136.63498
136.63498
136.63498
136.63498
136.63498
136.63498
136.63498
136.63498
136.63498
136.63498
136.63498
218.93877
218.93877
136.63498
136.63498
136.63498
136.63498
218.93877
136.63498
136.63498
136.63498
136.63498
136.63498
136.63498
136.63498
136.63498
136.63498
136.63498
136.63498
136.63498
136.63498
136.63498
136.63498
136.63498
136.63498
136.63498
136.63498
136.63498
136.63498
136.63498
136.63498
136.63498
136.63498
136.63498
218.93877
218.93877
218.93877
218.93877
218.93877
218.93877
218.93877
218.93877
218.93877
218.93877
218.93877
136.63498
136.63498
136.63498
136.63498
218.93877
218.93877
218.93877
218.93877
218.93877
0
0
0
136.63498
136.63498
136.63498
136.63498
136.63498
136.63498
136.63498
136.63498
136.63498
218.93877
218.93877
218.93877
218.93877
218.93877
218.93877
218.93877
218.93877
218.93877
218.93877
218.93877
218.93877
218.93877
218.93877
218.93877
218.93877
218.93877
218.93877
136.63498
218.93877
136.63498
218.93877
218.93877
218.93877
218.93877
136.63498
218.93877
218.93877
136.63498
218.93877
218.93877
0
0
218.93877
0
218.93877
218.93877
218.93877
136.63498
136.63498
136.63498
136.63498
136.63498
136.63498
0
218.93877
0
218.93877
136.63498
0
0
0
136.63498
0
0
218.93877
218.93877
136.63498
136.63498
218.93877
218.93877
218.93877
136.63498
0
0
0
218.93877
0
218.93877
0
218.93877
0
136.63498
136.63498
0
0
0
0
0
0
0
0
0
0
0
0
0
0
218.93877
218.93877
136.63498
218.93877
136.63498
218.93877
218.93877
218.93877
218.93877
218.93877
0
218.93877
218.93877
0
218.93877
0
0
218.93877
218.93877
218.93877
0
218.93877
0
218.93877
0
0
218.93877
0
0
0
0
0
0
0
0
136.63498
136.63498
136.63498
136.63498
136.63498
136.63498
136.63498
136.63498
136.63498
136.63498
136.63498
136.63498
136.63498
218.93877
218.93877
218.93877
218.93877
218.93877
218.93877
136.63498
136.63498
136.63498
218.93877
218.93877
218.93877
218.93877
218.93877
218.93877
136.63498
136.63498
136.63498
136.63498
136.63498
136.63498
136.63498
136.63498
136.63498
136.63498
136.63498
218.93877
218.93877
218.93877
218.93877
218.93877
218.93877
136.63498
218.93877
218.93877
218.93877
218.93877
218.93877
218.93877
136.63498
136.63498
136.63498
136.63498
0
0
0
0
0
0
0
0
0
0
0
218.93877
218.93877
218.93877
218.93877
218.93877
218.93877
0
0
0
0
218.93877
218.93877
218.93877
218.93877
218.93877
218.93877
218.93877
218.93877
218.93877
218.93877
218.93877
218.93877
218.93877
218.93877
218.93877
218.93877
218.93877
218.93877
218.93877
218.93877
218.93877
218.93877
218.93877
218.93877
218.93877
218.93877
218.93877
218.93877
218.93877
218.93877
218.93877
218.93877
218.93877
218.93877
218.93877
218.93877
218.93877
218.93877
218.93877
218.93877
218.93877
218.93877
218.93877
218.93877
218.93877
218.93877
218.93877
218.93877
218.93877
218.93877
218.93877
218.93877
218.93877
218.93877
218.93877
218.93877
218.93877
218.93877
218.93877
218.93877
218.93877
218.93877
0
0
0
0
0
0
0
0
0
0
0
0
0
0
0
0
0
0
0
0
0
0
0
0
0
0
0
0
0
0
0
0
0
0
0
0
0
0
0
0
0
0
0
0
0
0
0
0
0
0
0
0
0
0
0
0
0
0
0
0
0
0
0
0
0
0
0
0
0
0
0
0
0
0
0
0
0
0
0
0
0
0
0
0
0
0
0
0
0
0
0
0
0
0
0
0
0
0
0
0
0
0
0
0
0
0
0
0
0
0
0
0
0
0
0
0
0
0
0
0
0
0
0
0
0
0
0
0
0
0
0
0
0
0
0
0
0
0
0
0
0
0
0
0
0
0
0
0
0
0
0
0
0
0
0
)


834
(
180.4505
180.4505
180.4505
180.4505
180.4505
180.4505
180.4505
180.4505
180.4505
180.4505
180.4505
180.4505
180.4505
180.4505
180.4505
180.4505
180.4505
180.4505
180.4505
180.4505
180.4505
180.4505
180.4505
180.4505
180.4505
180.4505
180.4505
180.4505
180.4505
180.4505
180.4505
180.4505
180.4505
180.4505
180.4505
180.4505
180.4505
180.4505
180.4505
180.4505
180.4505
178.75054
178.75054
178.75054
178.75054
178.75054
178.75054
178.75054
178.75054
178.75054
178.75054
178.75054
178.75054
178.75054
178.75054
178.75054
178.75054
178.75054
178.75054
178.75054
178.75054
178.75054
178.75054
178.75054
178.75054
178.75054
178.75054
1.3650296
178.75054
178.75054
178.75054
178.75054
1.3650296
178.75054
1.3650296
178.75054
178.75054
178.75054
178.75054
178.75054
178.75054
178.75054
178.75054
178.75054
178.75054
178.75054
178.75054
178.75054
178.75054
178.75054
178.75054
178.75054
178.75054
178.75054
178.75054
178.75054
1.3650296
1.3650296
178.75054
178.75054
1.3650296
178.75054
178.75054
178.75054
178.75054
178.75054
178.75054
178.75054
178.75054
178.75054
178.75054
178.75054
178.75054
178.75054
178.75054
1.3650296
1.3650296
178.75054
178.75054
1.3650296
1.3650296
1.3650296
1.3650296
178.75054
178.75054
178.75054
178.75054
178.75054
178.75054
178.75054
178.75054
178.75054
178.75054
178.75054
1.3650296
1.3650296
1.3650296
1.3650296
1.3650296
178.75054
178.75054
178.75054
178.75054
178.75054
178.75054
178.75054
178.75054
1.3650296
1.3650296
1.3650296
1.3650296
178.75054
178.75054
178.75054
178.75054
178.75054
178.75054
178.75054
1.3650296
1.3650296
1.3650296
1.3650296
178.75054
1.3650296
1.3650296
178.75054
178.75054
178.75054
178.75054
178.75054
1.3650296
1.3650296
1.3650296
178.75054
1.3650296
1.3650296
178.75054
1.3650296
1.3650296
178.75054
178.75054
178.75054
178.75054
178.75054
178.75054
1.3650296
1.3650296
1.3650296
1.3650296
1.3650296
1.3650296
1.3650296
1.3650296
1.3650296
1.3650296
1.3650296
1.3650296
1.3650296
1.3650296
1.3650296
1.3650296
178.75054
1.3650296
1.3650296
178.75054
1.3650296
1.3650296
1.3650296
1.3650296
1.3650296
1.3650296
178.75054
178.75054
178.75054
178.75054
178.75054
1.3650296
1.3650296
1.3650296
1.3650296
1.3650296
1.3650296
1.3650296
1.3650296
1.3650296
1.3650296
178.75054
1.3650296
1.3650296
1.3650296
1.3650296
1.3650296
1.3650296
1.3650296
1.3650296
1.3650296
1.3650296
178.75054
178.75054
178.75054
178.75054
178.75054
178.75054
178.75054
1.3650296
1.3650296
1.3650296
1.3650296
1.3650296
1.3650296
178.75054
1.3650296
1.3650296
1.3650296
1.3650296
1.3650296
1.3650296
178.75054
178.75054
178.75054
1.3650296
178.75054
1.3650296
1.3650296
1.3650296
1.3650296
178.75054
178.75054
178.75054
178.75054
178.75054
178.75054
178.75054
178.75054
178.75054
178.75054
178.75054
178.75054
178.75054
178.75054
178.75054
178.75054
178.75054
178.75054
178.75054
178.75054
178.75054
1.3650296
1.3650296
1.3650296
1.3650296
1.3650296
1.3650296
1.3650296
1.3650296
1.3650296
1.3650296
1.3650296
1.3650296
178.75054
178.75054
178.75054
178.75054
178.75054
178.75054
1.3650296
1.3650296
1.3650296
1.3650296
1.3650296
1.3650296
1.3650296
1.3650296
1.3650296
1.3650296
1.3650296
1.3650296
1.3650296
1.3650296
1.3650296
1.3650296
1.3650296
1.3650296
1.3650296
1.3650296
1.3650296
1.3650296
1.3650296
1.3650296
1.3650296
1.3650296
1.3650296
1.3650296
178.75054
178.75054
178.75054
180.4505
180.4505
180.4505
178.75054
178.75054
178.75054
178.75054
178.75054
178.75054
178.75054
178.75054
178.75054
178.75054
178.75054
178.75054
178.75054
180.4505
180.4505
178.75054
178.75054
178.75054
178.75054
180.4505
178.75054
178.75054
178.75054
178.75054
178.75054
178.75054
178.75054
178.75054
178.75054
178.75054
178.75054
178.75054
178.75054
178.75054
178.75054
178.75054
178.75054
178.75054
178.75054
178.75054
178.75054
178.75054
178.75054
178.75054
178.75054
178.75054
180.4505
180.4505
180.4505
180.4505
180.4505
180.4505
180.4505
180.4505
180.4505
180.4505
180.4505
178.75054
178.75054
178.75054
178.75054
180.4505
180.4505
180.4505
180.4505
180.4505
1.3650296
1.3650296
1.3650296
178.75054
178.75054
178.75054
178.75054
178.75054
178.75054
178.75054
178.75054
178.75054
180.4505
180.4505
180.4505
180.4505
180.4505
180.4505
180.4505
180.4505
180.4505
180.4505
180.4505
180.4505
180.4505
180.4505
180.4505
180.4505
180.4505
180.4505
178.75054
180.4505
178.75054
180.4505
180.4505
180.4505
180.4505
178.75054
180.4505
180.4505
178.75054
180.4505
180.4505
1.3650296
1.3650296
180.4505
1.3650296
180.4505
180.4505
180.4505
178.75054
178.75054
178.75054
178.75054
178.75054
178.75054
1.3650296
180.4505
1.3650296
180.4505
178.75054
1.3650296
1.3650296
1.3650296
178.75054
1.3650296
1.3650296
180.4505
180.4505
178.75054
178.75054
180.4505
180.4505
180.4505
178.75054
1.3650296
1.3650296
1.3650296
180.4505
1.3650296
180.4505
1.3650296
180.4505
1.3650296
178.75054
178.75054
1.3650296
1.3650296
1.3650296
1.3650296
1.3650296
1.3650296
1.3650296
1.3650296
1.3650296
1.3650296
1.3650296
1.3650296
1.3650296
1.3650296
180.4505
180.4505
178.75054
180.4505
178.75054
180.4505
180.4505
180.4505
180.4505
180.4505
1.3650296
180.4505
180.4505
1.3650296
180.4505
1.3650296
1.3650296
180.4505
180.4505
180.4505
1.3650296
180.4505
1.3650296
180.4505
1.3650296
1.3650296
180.4505
1.3650296
1.3650296
1.3650296
1.3650296
1.3650296
1.3650296
1.3650296
1.3650296
178.75054
178.75054
178.75054
178.75054
178.75054
178.75054
178.75054
178.75054
178.75054
178.75054
178.75054
178.75054
178.75054
180.4505
180.4505
180.4505
180.4505
180.4505
180.4505
178.75054
178.75054
178.75054
180.4505
180.4505
180.4505
180.4505
180.4505
180.4505
178.75054
178.75054
178.75054
178.75054
178.75054
178.75054
178.75054
178.75054
178.75054
178.75054
178.75054
180.4505
180.4505
180.4505
180.4505
180.4505
180.4505
178.75054
180.4505
180.4505
180.4505
180.4505
180.4505
180.4505
178.75054
178.75054
178.75054
178.75054
1.3650296
1.3650296
1.3650296
1.3650296
1.3650296
1.3650296
1.3650296
1.3650296
1.3650296
1.3650296
1.3650296
180.4505
180.4505
180.4505
180.4505
180.4505
180.4505
1.3650296
1.3650296
1.3650296
1.3650296
180.4505
180.4505
180.4505
180.4505
180.4505
180.4505
180.4505
180.4505
180.4505
180.4505
180.4505
180.4505
180.4505
180.4505
180.4505
180.4505
180.4505
180.4505
180.4505
180.4505
180.4505
180.4505
180.4505
180.4505
180.4505
180.4505
180.4505
180.4505
180.4505
180.4505
180.4505
180.4505
180.4505
180.4505
180.4505
180.4505
180.4505
180.4505
180.4505
180.4505
180.4505
180.4505
180.4505
180.4505
180.4505
180.4505
180.4505
180.4505
180.4505
180.4505
180.4505
180.4505
180.4505
180.4505
180.4505
180.4505
180.4505
180.4505
180.4505
180.4505
180.4505
180.4505
1.3650296
1.3650296
1.3650296
1.3650296
1.3650296
1.3650296
1.3650296
1.3650296
1.3650296
1.3650296
1.3650296
1.3650296
1.3650296
1.3650296
1.3650296
1.3650296
1.3650296
1.3650296
1.3650296
1.3650296
1.3650296
1.3650296
1.3650296
1.3650296
1.3650296
1.3650296
1.3650296
1.3650296
1.3650296
1.3650296
1.3650296
1.3650296
1.3650296
1.3650296
1.3650296
1.3650296
1.3650296
1.3650296
1.3650296
1.3650296
1.3650296
1.3650296
1.3650296
1.3650296
1.3650296
1.3650296
1.3650296
1.3650296
1.3650296
1.3650296
1.3650296
1.3650296
1.3650296
1.3650296
1.3650296
1.3650296
1.3650296
1.3650296
1.3650296
1.3650296
1.3650296
1.3650296
1.3650296
1.3650296
1.3650296
1.3650296
1.3650296
1.3650296
1.3650296
1.3650296
1.3650296
1.3650296
1.3650296
1.3650296
1.3650296
1.3650296
1.3650296
1.3650296
1.3650296
1.3650296
1.3650296
1.3650296
1.3650296
1.3650296
1.3650296
1.3650296
1.3650296
1.3650296
1.3650296
1.3650296
1.3650296
1.3650296
1.3650296
1.3650296
1.3650296
1.3650296
1.3650296
1.3650296
1.3650296
1.3650296
1.3650296
1.3650296
1.3650296
1.3650296
1.3650296
1.3650296
1.3650296
1.3650296
1.3650296
1.3650296
1.3650296
1.3650296
1.3650296
1.3650296
1.3650296
1.3650296
1.3650296
1.3650296
1.3650296
1.3650296
1.3650296
1.3650296
1.3650296
1.3650296
1.3650296
1.3650296
1.3650296
1.3650296
1.3650296
1.3650296
1.3650296
1.3650296
1.3650296
1.3650296
1.3650296
1.3650296
1.3650296
1.3650296
1.3650296
1.3650296
1.3650296
1.3650296
1.3650296
1.3650296
1.3650296
1.3650296
1.3650296
1.3650296
1.3650296
1.3650296
1.3650296
1.3650296
1.3650296
1.3650296
1.3650296
)

)


// ************************************************************************* //
