/*--------------------------------*- C++ -*----------------------------------*\
  =========                 |
  \\      /  F ield         | OpenFOAM: The Open Source CFD Toolbox
   \\    /   O peration     | Website:  https://openfoam.org
    \\  /    A nd           | Version:  8
     \\/     M anipulation  |
\*---------------------------------------------------------------------------*/
/*   Windows 32 and 64 bit porting by blueCAPE: http://www.bluecape.com.pt   *\
|  Based on Windows porting (2.0.x v4) by Symscape: http://www.symscape.com   |
\*---------------------------------------------------------------------------*/
FoamFile
{
    version     2.0;
    format      ascii;
    class       scalarListList;
    location    "constant/vegetation";
    object      solarLoadFineFaces;
}
// * * * * * * * * * * * * * * * * * * * * * * * * * * * * * * * * * * * * * //


5
(

1099
(
501.05251
501.05251
501.05251
501.05251
501.05251
501.05251
501.05251
501.05251
501.05251
501.05251
501.05251
501.05251
501.05251
501.05251
501.05251
501.05251
364.77658
501.05251
501.05251
501.05251
501.05251
180.61422
180.61422
501.05251
501.05251
501.05251
501.05251
413.51888
501.05251
501.05251
501.05251
501.05251
501.05251
501.05251
501.05251
501.05251
364.77658
413.51888
413.51888
413.51888
501.05251
501.05251
501.05251
501.05251
501.05251
501.05251
501.05251
501.05251
501.05251
501.05251
501.05251
501.05251
501.05251
501.05251
501.05251
501.05251
501.05251
501.05251
501.05251
501.05251
501.05251
501.05251
501.05251
501.05251
501.05251
501.05251
501.05251
501.05251
501.05251
501.05251
501.05251
501.05251
501.05251
501.05251
180.61422
501.05251
501.05251
483.91489
483.91489
180.61422
501.05251
501.05251
501.05251
413.51888
501.05251
501.05251
501.05251
501.05251
501.05251
501.05251
501.05251
501.05251
501.05251
501.05251
501.05251
501.05251
501.05251
501.05251
501.05251
501.05251
501.05251
501.05251
501.05251
501.05251
501.05251
501.05251
501.05251
501.05251
501.05251
501.05251
501.05251
501.05251
501.05251
501.05251
501.05251
501.05251
180.25355
501.05251
501.05251
501.05251
501.05251
501.05251
234.16147
501.05251
501.05251
180.25355
501.05251
501.05251
234.16147
501.05251
501.05251
501.05251
501.05251
501.05251
234.16147
279.71603
211.51192
501.05251
501.05251
501.05251
501.05251
501.05251
501.05251
501.05251
501.05251
501.05251
501.05251
501.05251
501.05251
501.05251
211.51192
211.51192
180.25355
501.05251
501.05251
211.51192
211.51192
501.05251
501.05251
501.05251
501.05251
501.05251
501.05251
501.05251
501.05251
501.05251
501.05251
501.05251
501.05251
501.05251
501.05251
501.05251
501.05251
501.05251
501.05251
501.05251
501.05251
501.05251
501.05251
501.05251
501.05251
501.05251
501.05251
501.05251
501.05251
501.05251
501.05251
501.05251
501.05251
501.05251
501.05251
501.05251
501.05251
501.05251
501.05251
501.05251
501.05251
501.05251
501.05251
501.05251
501.05251
501.05251
501.05251
501.05251
501.05251
501.05251
501.05251
501.05251
501.05251
501.05251
501.05251
501.05251
501.05251
501.05251
501.05251
501.05251
501.05251
501.05251
501.05251
501.05251
501.05251
501.05251
501.05251
501.05251
501.05251
501.05251
501.05251
501.05251
501.05251
501.05251
501.05251
501.05251
501.05251
501.05251
501.05251
501.05251
501.05251
501.05251
501.05251
501.05251
501.05251
501.05251
501.05251
501.05251
501.05251
501.05251
501.05251
501.05251
501.05251
501.05251
501.05251
501.05251
501.05251
501.05251
501.05251
501.05251
501.05251
224.72547
501.05251
501.05251
501.05251
501.05251
501.05251
501.05251
224.72547
501.05251
501.05251
501.05251
279.40467
501.05251
501.05251
501.05251
279.40467
501.05251
501.05251
279.40467
247.32009
165.74119
501.05251
501.05251
501.05251
501.05251
501.05251
501.05251
501.05251
501.05251
501.05251
501.05251
501.05251
501.05251
501.05251
501.05251
501.05251
501.05251
501.05251
501.05251
501.05251
501.05251
501.05251
501.05251
501.05251
501.05251
165.74119
116.23248
224.72547
501.05251
501.05251
165.74119
501.05251
501.05251
501.05251
501.05251
501.05251
501.05251
501.05251
501.05251
501.05251
501.05251
501.05251
501.05251
165.74119
501.05251
501.05251
501.05251
501.05251
501.05251
501.05251
501.05251
501.05251
501.05251
501.05251
501.05251
501.05251
501.05251
501.05251
501.05251
501.05251
501.05251
501.05251
501.05251
501.05251
501.05251
501.05251
501.05251
501.05251
501.05251
501.05251
501.05251
501.05251
501.05251
501.05251
501.05251
501.05251
81.062547
81.062547
81.062547
81.062547
81.062547
81.062547
81.062547
81.062547
81.062547
81.062547
81.062547
81.062547
81.062547
81.062547
81.062547
81.062547
81.062547
81.062547
81.062547
81.062547
81.062547
81.062547
81.062547
81.062547
81.062547
81.062547
81.062547
81.062547
81.062547
81.062547
81.062547
81.062547
81.062547
81.062547
81.062547
81.062547
81.062547
81.062547
81.062547
81.062547
81.062547
81.062547
81.062547
81.062547
81.062547
81.062547
81.062547
81.062547
81.062547
81.062547
81.062547
81.062547
81.062547
81.062547
81.062547
81.062547
81.062547
81.062547
81.062547
81.062547
81.062547
81.062547
81.062547
81.062547
81.062547
81.062547
81.062547
81.062547
81.062547
81.062547
81.062547
81.062547
81.062547
81.062547
81.062547
81.062547
81.062547
81.062547
81.062547
81.062547
81.062547
81.062547
81.062547
81.062547
81.062547
81.062547
81.062547
81.062547
81.062547
81.062547
81.062547
81.062547
81.062547
81.062547
81.062547
81.062547
81.062547
81.062547
81.062547
81.062547
81.062547
81.062547
81.062547
81.062547
81.062547
81.062547
81.062547
81.062547
81.062547
81.062547
81.062547
81.062547
81.062547
81.062547
81.062547
81.062547
81.062547
81.062547
81.062547
81.062547
81.062547
81.062547
81.062547
81.062547
81.062547
81.062547
81.062547
81.062547
81.062547
81.062547
81.062547
81.062547
81.062547
81.062547
81.062547
81.062547
81.062547
81.062547
81.062547
81.062547
81.062547
81.062547
81.062547
81.062547
81.062547
81.062547
81.062547
81.062547
81.062547
81.062547
81.062547
81.062547
81.062547
81.062547
81.062547
81.062547
81.062547
81.062547
81.062547
81.062547
81.062547
81.062547
81.062547
81.062547
81.062547
81.062547
81.062547
81.062547
81.062547
81.062547
81.062547
81.062547
81.062547
81.062547
81.062547
81.062547
81.062547
81.062547
81.062547
81.062547
81.062547
81.062547
81.062547
81.062547
81.062547
81.062547
81.062547
81.062547
81.062547
81.062547
81.062547
81.062547
81.062547
81.062547
81.062547
81.062547
81.062547
81.062547
81.062547
81.062547
81.062547
81.062547
81.062547
81.062547
81.062547
81.062547
81.062547
81.062547
81.062547
81.062547
81.062547
81.062547
81.062547
81.062547
81.062547
81.062547
81.062547
81.062547
81.062547
81.062547
81.062547
81.062547
81.062547
81.062547
81.062547
81.062547
81.062547
81.062547
81.062547
81.062547
81.062547
81.062547
81.062547
81.062547
81.062547
81.062547
81.062547
81.062547
81.062547
81.062547
81.062547
81.062547
81.062547
81.062547
81.062547
81.062547
501.05251
81.062547
81.062547
81.062547
81.062547
81.062547
81.062547
81.062547
81.062547
81.062547
81.062547
81.062547
81.062547
81.062547
81.062547
81.062547
81.062547
81.062547
501.05251
501.05251
81.062547
501.05251
501.05251
81.062547
501.05251
501.05251
81.062547
501.05251
501.05251
81.062547
81.062547
81.062547
501.05251
501.05251
81.062547
81.062547
501.05251
81.062547
501.05251
501.05251
501.05251
501.05251
501.05251
501.05251
81.062547
501.05251
501.05251
501.05251
81.062547
501.05251
501.05251
501.05251
81.062547
81.062547
81.062547
81.062547
81.062547
81.062547
81.062547
81.062547
81.062547
81.062547
81.062547
81.062547
81.062547
81.062547
81.062547
81.062547
81.062547
81.062547
81.062547
81.062547
81.062547
81.062547
81.062547
81.062547
501.05251
501.05251
501.05251
81.062547
501.05251
501.05251
81.062547
501.05251
501.05251
81.062547
501.05251
501.05251
81.062547
81.062547
81.062547
81.062547
81.062547
81.062547
81.062547
81.062547
81.062547
81.062547
81.062547
501.05251
501.05251
501.05251
81.062547
501.05251
501.05251
501.05251
81.062547
81.062547
501.05251
501.05251
501.05251
81.062547
81.062547
81.062547
81.062547
81.062547
81.062547
81.062547
81.062547
81.062547
81.062547
81.062547
81.062547
81.062547
81.062547
81.062547
81.062547
81.062547
81.062547
81.062547
81.062547
81.062547
81.062547
81.062547
81.062547
81.062547
81.062547
81.062547
81.062547
81.062547
81.062547
81.062547
81.062547
81.062547
81.062547
81.062547
81.062547
81.062547
81.062547
81.062547
81.062547
81.062547
81.062547
81.062547
81.062547
81.062547
81.062547
81.062547
81.062547
81.062547
81.062547
81.062547
81.062547
81.062547
81.062547
81.062547
81.062547
81.062547
81.062547
81.062547
81.062547
81.062547
81.062547
81.062547
81.062547
81.062547
81.062547
81.062547
81.062547
81.062547
81.062547
81.062547
81.062547
81.062547
81.062547
81.062547
81.062547
81.062547
81.062547
81.062547
81.062547
81.062547
81.062547
81.062547
81.062547
81.062547
81.062547
81.062547
81.062547
81.062547
81.062547
81.062547
81.062547
81.062547
81.062547
81.062547
81.062547
81.062547
81.062547
81.062547
81.062547
81.062547
81.062547
81.062547
81.062547
81.062547
81.062547
81.062547
81.062547
81.062547
81.062547
81.062547
81.062547
81.062547
81.062547
81.062547
81.062547
81.062547
81.062547
81.062547
81.062547
81.062547
81.062547
81.062547
81.062547
81.062547
81.062547
81.062547
81.062547
81.062547
81.062547
81.062547
81.062547
81.062547
81.062547
81.062547
81.062547
81.062547
81.062547
81.062547
81.062547
81.062547
81.062547
81.062547
81.062547
81.062547
81.062547
81.062547
81.062547
81.062547
81.062547
81.062547
81.062547
81.062547
81.062547
81.062547
81.062547
81.062547
81.062547
81.062547
81.062547
81.062547
81.062547
81.062547
81.062547
81.062547
81.062547
81.062547
81.062547
81.062547
81.062547
81.062547
81.062547
81.062547
81.062547
81.062547
81.062547
81.062547
81.062547
81.062547
81.062547
81.062547
219.89864
134.88943
291.33467
114.28866
295.86669
362.30211
271.79961
30.418427
289.37315
232.71915
0
177.71296
0
108.7725
176.2897
224.36969
126.5798
217.91925
160.78549
316.3684
286.29053
211.03721
225.27441
146.88771
0
8.1065588
26.170305
0
4.4921082
0
199.69866
85.757272
156.5829
0
0
0
0
0
0
0
0
0
0
26.045866
258.54753
0
0
0
489.89002
285.02051
0
0
0
37.958917
362.22405
491.37112
205.29183
444.03069
132.9933
79.14581
10.455774
45.251704
0
0
0
0
0
0
0
0
0
0
141.91517
0
0
335.59552
112.28463
57.129952
166.75998
102.91862
190.93055
339.59684
240.20598
125.67377
91.689584
198.29501
0
0
141.13864
245.14322
308.28527
391.05099
225.37358
222.74254
0
220.24563
457.58383
252.55296
0
0
0
0
0
107.21086
0
59.23637
0
0
0
40.644229
276.13421
480.9057
82.778114
38.461749
0
0
0
0
0
0
0
0
0
0
13.709193
0
0
0
0
163.30398
207.69866
156.84488
298.84048
211.45727
324.95983
140.20521
0
0
0
16.147789
0
0
332.33054
112.15788
217.12363
141.95155
242.29041
190.90625
342.31415
0
0
0
140.86615
305.21242
393.17419
222.51377
225.02276
243.66483
163.43839
83.047371
13.563938
0
0
0
0
0
0
0
0
0
0
1.2055747
0
59.499449
0
40.796986
42.752805
199.33032
91.763325
125.78918
57.371887
0
106.59776
0
0
455.48217
252.52584
0
295.20559
208.10696
325.60752
140.56468
206.90269
156.53783
11.445018
0
0
12.935829
0
275.77565
166.79847
482.61027
103.13052
38.692607
15.218921
0
0
0
)


1099
(
0
284.54856
282.89244
0
284.54856
0
0
284.54856
284.54856
284.54856
284.54856
284.54856
284.54856
284.54856
284.54856
284.54856
129.54449
284.54856
284.54856
182.55141
284.54856
284.54856
73.253551
284.54856
278.13301
284.54856
284.54856
160.29015
284.54856
284.54856
284.54856
284.54856
284.54856
284.54856
284.54856
284.54856
129.54449
160.29015
160.29015
160.29015
277.19464
284.54856
284.54856
284.54856
248.3679
160.29015
284.54856
284.54856
284.54856
284.54856
284.54856
284.54856
284.54856
284.54856
0
284.54856
278.13301
284.54856
284.54856
0
284.54856
284.54856
284.54856
284.54856
0
284.54856
284.54856
284.54856
284.54856
284.54856
284.54856
284.54856
284.54856
284.54856
284.54856
284.54856
284.54856
278.13301
284.54856
284.54856
284.54856
284.54856
284.54856
160.29015
160.29015
284.54856
284.54856
284.54856
284.54856
284.54856
284.54856
284.54856
284.54856
284.54856
0
0
284.54856
284.54856
284.54856
284.54856
284.54856
284.54856
284.54856
284.54856
284.54856
0
0
284.54856
0
271.56403
284.54856
284.54856
0
284.54856
284.54856
0
87.492346
284.54856
284.54856
284.54856
284.54856
284.54856
93.84902
284.54856
284.54856
284.54856
0
284.54856
93.84902
284.54856
284.54856
284.54856
284.54856
284.54856
93.84902
126.52998
88.791198
284.54856
284.54856
284.54856
284.54856
284.54856
284.54856
284.54856
284.54856
284.54856
284.54856
284.54856
284.54856
0
88.791198
284.54856
284.54856
284.54856
284.54856
284.54856
88.791198
126.52998
284.54856
284.54856
126.52998
93.84902
284.54856
284.54856
284.54856
0
284.54856
284.54856
284.54856
284.54856
284.54856
284.54856
284.54856
93.84902
284.54856
284.54856
271.56403
284.54856
284.54856
284.54856
284.54856
284.54856
0
0
284.54856
284.54856
284.54856
0
0
0
0
0
0
0
0
0
0
0
0
0
0
0
0
0
0
0
0
0
0
0
0
0
0
0
0
0
0
0
0
0
0
0
0
0
0
0
0
0
0
0
0
0
0
0
0
0
0
0
284.54856
284.54856
284.54856
284.54856
284.54856
284.54856
284.54856
284.54856
284.54856
284.54856
0
284.54856
284.54856
284.54856
284.54856
284.54856
284.54856
284.54856
284.54856
117.31825
284.54856
196.4176
284.54856
284.54856
284.54856
284.54856
284.54856
284.54856
284.54856
284.54856
127.64211
284.54856
284.54856
284.54856
127.64211
284.54856
284.54856
127.64211
112.7259
75.217418
284.54856
284.54856
284.54856
284.54856
284.54856
284.54856
284.54856
284.54856
284.54856
284.54856
284.54856
0
284.54856
284.54856
284.54856
284.54856
112.7259
192.7075
284.54856
284.54856
284.54856
284.54856
284.54856
284.54856
75.217418
284.54856
284.54856
284.54856
284.54856
284.54856
284.54856
284.54856
284.54856
284.54856
284.54856
284.54856
284.54856
284.54856
284.54856
284.54856
284.54856
284.54856
75.217418
112.7259
284.54856
196.4176
284.54856
284.54856
284.54856
127.64211
0
284.54856
284.54856
284.54856
284.54856
284.54856
284.54856
0
0
0
0
0
0
283.98668
283.98668
283.98668
0
0
0
0
0
0
0
0
0
0
0
0
0
0
0
0
0
0
0
0
0
0
0
0
0
0
0
0
0
0
0
0
0
0
0
0
0
0
0
0
0
0
0
0
0
0
0
0
0
0
0
0
0
0
0
0
0
0
0
0
0
0
0
0
0
0
0
0
0
0
0
0
0
0
0
0
0
0
0
0
0
0
0
0
0
0
0
0
0
0
0
0
0
0
0
0
0
0
0
0
0
0
0
0
0
0
0
0
0
0
0
0
0
0
0
0
0
0
0
0
0
0
0
0
0
0
0
0
0
0
0
0
0
0
0
0
0
0
0
0
0
0
0
0
0
0
0
0
0
0
0
0
0
0
0
0
0
0
0
0
0
0
0
0
0
0
0
0
0
0
0
0
0
0
0
0
0
0
0
0
0
0
0
0
0
0
0
0
0
0
0
0
0
0
0
0
0
0
0
0
0
0
0
0
0
0
0
0
0
0
0
0
0
0
0
0
0
0
0
0
0
0
0
0
0
0
0
0
0
0
0
0
0
0
0
0
0
0
0
0
0
0
0
0
0
0
0
0
0
0
0
0
0
0
0
284.54856
0
0
0
0
0
0
0
0
0
0
0
0
0
0
0
0
0
284.54856
284.54856
0
284.54856
284.54856
0
284.54856
284.54856
0
284.54856
284.54856
0
0
0
284.54856
284.54856
0
0
284.54856
0
284.54856
284.54856
284.54856
284.54856
284.54856
284.54856
0
284.54856
284.54856
284.54856
0
284.54856
284.54856
284.54856
0
0
0
0
0
0
0
0
0
0
0
0
0
0
0
0
0
0
0
0
0
0
0
0
284.54856
284.54856
284.54856
0
284.54856
284.54856
0
284.54856
284.54856
0
284.54856
284.54856
0
0
0
0
0
0
0
0
0
0
0
284.54856
284.54856
284.54856
0
284.54856
284.54856
284.54856
0
0
284.54856
284.54856
284.54856
0
0
0
0
0
0
0
0
0
0
0
0
0
0
0
0
0
0
0
0
0
0
0
0
0
0
0
0
0
0
0
0
0
0
0
0
0
0
0
0
0
0
0
0
0
0
0
0
0
0
0
0
0
0
0
0
0
0
0
0
0
0
0
0
0
0
0
0
0
0
0
0
0
0
0
0
0
0
0
0
0
0
0
0
0
0
0
0
0
0
0
0
0
0
0
0
0
0
0
0
0
0
0
0
0
0
0
0
0
0
0
0
0
0
0
0
0
0
0
0
0
0
0
0
0
0
0
0
0
0
0
0
0
0
0
0
0
0
0
0
0
0
0
0
0
0
0
0
0
0
0
0
0
0
0
0
0
0
0
0
0
0
0
0
0
0
0
0
0
0
0
0
0
0
0
0
0
0
0
0
0
181.10923
11.101644
192.60468
2.4818565
117.52589
149.5784
90.343472
0
108.27537
73.357398
0
160.08678
54.062261
125.74519
140.43403
106.86015
82.561431
136.54808
73.754347
156.40167
182.5887
74.107117
61.936009
34.088036
0
47.492043
0
0
18.252514
0
87.459525
0
27.52413
0
0
2.0781988
0
0
0
0
0
0
0
0
0
0
0
49.673741
289.21534
180.40535
0
62.615988
0
82.0997
176.32678
248.13199
89.669197
221.25792
95.757877
102.31696
0
0
0
1.0806126
0
0
0
0
0
0
0
0
11.580015
0
40.491518
215.81499
4.4171899
0
73.031981
75.691876
54.290645
134.29333
70.608284
16.296769
2.0527238
45.4658
0
0
137.78843
117.42995
156.77643
187.61561
86.628225
65.904709
0
181.26769
272.55011
159.79673
59.43594
0
35.114514
55.217929
0
80.152779
0
6.981781
0
22.115935
0
43.730629
128.97567
242.22905
93.140225
0
0
0
0
0
0
0
0
0
0
0
0
0
0
43.155572
58.483002
154.23134
138.56697
70.093183
186.64819
168.20309
133.41069
30.699996
0
0
0
0
15.911458
40.688036
215.11677
4.4370434
179.7636
11.581522
71.871453
54.242745
136.04629
0
0
0
137.6613
156.72859
190.6122
65.91845
86.849255
117.11234
154.3158
93.317009
43.21993
0
0
0
0
0
0
0
0
0
0
0
0
7.0981673
0
43.834278
44.435591
46.059213
0
16.351125
0
38.695986
80.244023
59.451051
22.21446
272.14116
159.85596
22.044509
185.92936
166.8056
134.49353
31.249809
138.4781
70.530379
58.540185
0
0
0
0
128.66567
72.941951
244.02486
75.751614
20.308019
0
0
0
0
)


1099
(
0
247.54772
0
0
0
0
0
0
0
247.54772
247.54772
0
0
0
247.54772
0
0
0
0
0
0
0
0
0
0
0
0
0
241.60282
247.54772
247.54772
247.54772
247.54772
0
0
0
0
0
0
0
0
0
0
0
0
0
0
0
0
224.65896
247.54772
247.54772
0
0
0
247.54772
0
0
0
0
0
0
0
0
0
247.54772
247.54772
247.54772
0
0
0
0
0
0
0
0
0
0
0
0
0
0
0
0
0
0
247.54772
247.54772
0
247.54772
247.54772
247.54772
247.54772
247.54772
0
0
247.54772
247.54772
247.54772
0
247.54772
247.54772
247.54772
247.54772
247.54772
0
0
247.54772
0
0
0
0
0
224.65896
247.54772
0
0
0
224.65896
229.89703
247.54772
0
0
0
0
0
0
0
0
0
0
0
247.54772
247.54772
0
0
0
247.54772
247.54772
0
0
0
0
0
247.54772
247.54772
247.54772
0
0
0
0
0
0
0
0
0
0
0
0
0
0
0
0
0
0
0
0
0
0
0
0
0
0
0
247.54772
0
0
0
0
247.54772
247.54772
247.54772
0
0
247.54772
247.54772
247.54772
0
0
0
0
0
0
0
0
0
0
0
0
0
0
0
0
0
0
0
0
0
0
0
0
0
0
0
0
0
0
0
0
0
0
0
0
0
0
0
0
0
0
0
0
0
0
0
0
0
0
0
247.54772
247.54772
0
247.54772
247.54772
247.54772
0
247.54772
247.54772
0
0
0
247.54772
0
247.54772
130.70054
247.54772
247.54772
247.54772
0
0
0
247.54772
247.54772
247.54772
247.54772
0
0
0
0
0
247.54772
247.54772
247.54772
0
247.54772
247.54772
0
0
0
0
0
247.54772
247.54772
0
247.54772
247.54772
247.54772
0
0
0
0
0
173.17151
0
0
0
122.24182
122.24182
247.54772
247.54772
247.54772
247.54772
247.54772
0
0
0
0
0
0
247.54772
247.54772
247.54772
247.54772
247.54772
247.54772
0
247.54772
247.54772
0
0
0
0
0
0
0
0
247.54772
247.54772
0
0
247.54772
247.54772
247.54772
247.54772
247.54772
247.54772
0
0
0
0
0
0
0
0
0
0
0
0
0
0
0
0
0
0
0
0
0
0
0
0
0
0
0
0
0
0
0
0
0
0
0
0
0
0
0
0
0
0
0
0
0
0
0
0
0
0
0
0
0
0
0
0
0
0
0
0
0
0
0
0
0
0
0
0
0
0
0
0
0
0
0
0
0
0
0
0
0
0
0
0
0
0
0
0
0
0
0
0
0
0
0
0
0
0
0
0
0
0
0
0
0
0
0
0
0
0
0
0
0
0
0
0
0
0
0
0
0
0
0
0
0
0
0
0
0
0
0
0
0
0
0
0
0
0
0
0
0
0
0
0
0
0
0
0
0
0
0
0
0
0
0
0
0
0
0
0
0
0
0
0
0
0
0
0
0
0
0
0
0
0
0
0
0
0
0
0
0
0
0
0
0
0
0
0
0
0
0
0
0
0
0
0
0
0
0
0
0
0
0
0
0
0
0
0
0
0
0
0
0
0
0
0
0
0
0
0
0
0
0
0
0
0
0
0
0
0
0
0
0
0
0
0
0
0
0
0
0
0
0
0
0
0
0
0
0
0
0
0
0
0
0
0
0
0
0
0
0
0
0
0
247.54772
0
0
0
0
0
0
0
0
0
0
0
0
0
0
0
0
0
247.54772
247.54772
0
247.54772
247.54772
0
247.54772
247.54772
0
247.54772
247.54772
0
0
0
247.54772
247.54772
0
0
247.54772
0
247.54772
247.54772
247.54772
247.54772
247.54772
247.54772
0
247.54772
247.54772
247.54772
0
247.54772
247.54772
247.54772
0
0
0
0
0
0
0
0
0
0
0
0
0
0
0
0
0
0
0
0
0
0
0
0
247.54772
247.54772
247.54772
0
247.54772
247.54772
0
247.54772
247.54772
0
247.54772
247.54772
0
0
0
0
0
0
0
0
0
0
0
247.54772
247.54772
247.54772
0
247.54772
247.54772
247.54772
0
0
247.54772
247.54772
247.54772
0
0
0
0
0
0
0
0
0
0
0
0
0
0
0
0
0
0
0
0
0
0
0
0
0
0
0
0
0
0
0
0
0
0
0
0
0
0
0
0
0
0
0
0
0
0
0
0
0
0
0
0
0
0
0
0
0
0
0
0
0
0
0
0
0
0
0
0
0
0
0
0
0
0
0
0
0
0
0
0
0
0
0
0
0
0
0
0
0
0
0
0
0
0
0
0
0
0
0
0
0
0
0
0
0
0
0
0
0
0
0
0
0
0
0
0
0
0
0
0
0
0
0
0
0
0
0
0
0
0
0
0
0
0
0
0
0
0
0
0
0
0
0
0
0
0
0
0
0
0
0
0
0
0
0
0
0
0
0
0
0
0
0
0
0
0
0
0
0
0
0
0
0
0
0
0
0
0
0
0
0
0
0
0
0
0
0
0
0
0
0
0
0
0
0
0
0
0
0
0
0
0
0
0
0
0
0
0
0
0
0
0
0
0
0
0
0
0
0
0
0
0
0
0
0
0
0
0
0
0
0
0
0
0
0
0
0
0
0
0
0
0
0
0
0
0
0
0
0
0
0
0
0
0
0
0
0
0
0
0
0
0
0
0
0
0
0
0
0
0
0
0
0
0
0
0
0
0
0
0
0
0
0
0
0
0
0
0
0
0
0
0
0
0
0
0
0
0
0
0
0
0
0
0
0
0
0
0
0
0
0
0
0
0
0
0
0
0
0
0
0
0
0
171.2632
0
0
0
0
0
0
0
0
0
125.3395
115.62656
109.85272
0.16460131
33.669285
76.757463
0
0
0
0
0
0
0
0
0
0
0
0
0
0
0
0
0
0
0
0
0
0
0
0
81.11466
0
0
0
0
0
172.57704
153.6049
68.271438
16.477506
133.2488
38.509458
0
0
0
0
0
0
0
0
0
0
0
0
0
0
)


1099
(
0
0
0
0
0
0
0
0
0
0
0
0
0
0
0
0
0
0
0
0
0
0
0
0
0
0
0
0
0
0
0
0
0
0
0
0
0
0
0
0
0
0
0
0
0
0
0
0
0
0
0
0
0
0
0
0
0
0
0
0
0
0
0
0
0
0
218.93877
218.93877
0
0
0
0
0
0
0
0
0
0
0
0
0
0
0
0
0
0
0
0
0
218.93877
218.93877
0
218.93877
218.93877
0
0
0
0
0
0
0
0
0
0
0
0
0
0
0
0
0
0
0
0
0
0
0
0
0
0
0
0
0
0
0
0
0
0
0
0
0
0
0
0
0
0
0
0
0
0
0
0
0
0
0
218.93877
218.93877
0
0
0
0
0
0
0
0
0
0
0
0
0
0
0
0
0
0
0
0
0
0
0
0
0
0
0
218.93877
0
0
0
0
0
0
0
0
0
0
0
0
0
0
0
0
0
0
0
0
0
0
0
0
0
0
0
0
0
0
0
0
0
0
0
0
0
0
0
0
0
0
0
0
0
0
0
0
0
0
0
0
0
0
0
0
0
0
0
0
0
0
0
218.93877
0
0
218.93877
218.93877
0
0
0
0
0
0
0
218.93877
0
218.93877
0
0
218.93877
218.93877
0
0
0
0
218.93877
218.93877
218.93877
0
0
0
0
0
0
218.79794
0
0
218.93877
218.93877
0
0
0
0
0
0
0
0
218.93877
218.93877
0
0
0
0
0
0
0
0
0
0
0
0
0
0
218.93877
218.93877
218.93877
0
0
0
0
0
0
218.93877
218.93877
218.93877
218.93877
213.52878
213.52878
0
0
0
0
0
0
0
0
0
0
0
0
0
0
0
218.48883
218.93877
218.93877
0
0
0
0
0
0
0
0
0
0
0
0
0
0
0
0
0
0
0
0
0
0
0
0
0
0
0
0
0
0
0
0
0
0
0
0
0
0
0
0
0
0
0
0
0
0
0
0
0
0
0
0
0
0
0
0
0
0
0
0
0
0
0
0
0
0
0
0
0
0
0
0
0
0
0
0
0
0
0
0
0
0
0
0
0
0
0
0
0
0
0
0
0
0
0
0
0
0
0
0
0
0
0
0
0
0
0
0
0
0
0
0
0
0
0
0
0
0
0
0
0
0
0
0
0
0
0
0
0
0
0
0
0
0
0
0
0
0
0
0
0
0
0
0
0
0
0
0
0
0
0
0
0
0
0
0
0
0
0
0
0
0
0
0
0
0
0
0
0
0
0
0
0
0
0
0
0
0
0
0
0
0
0
0
0
0
0
0
0
0
0
0
0
0
0
0
0
0
0
0
0
0
0
0
0
0
0
0
0
0
0
0
0
0
0
0
0
0
0
0
0
0
0
0
0
0
0
0
0
0
0
0
0
0
0
0
0
0
0
0
0
0
0
0
0
0
0
0
0
0
0
0
0
0
0
0
0
0
0
0
0
0
0
0
0
0
0
218.93877
0
0
0
0
0
0
0
0
0
0
0
0
0
0
0
0
0
218.93877
218.93877
0
218.93877
218.93877
0
218.93877
218.93877
0
218.93877
218.93877
0
0
0
218.93877
218.93877
0
0
218.93877
0
218.93877
218.93877
218.93877
218.93877
218.93877
218.93877
0
218.93877
218.93877
218.93877
0
218.93877
218.93877
218.93877
0
0
0
0
0
0
0
0
0
0
0
0
0
0
0
0
0
0
0
0
0
0
0
0
218.93877
218.93877
218.93877
0
218.93877
218.93877
0
218.93877
218.93877
0
218.93877
218.93877
0
0
0
0
0
0
0
0
0
0
0
218.93877
218.93877
218.93877
0
218.93877
218.93877
218.93877
0
0
218.93877
218.93877
218.93877
0
0
0
0
0
0
0
0
0
0
0
0
0
0
0
0
0
0
0
0
0
0
0
0
0
0
0
0
0
0
0
0
0
0
0
0
0
0
0
0
0
0
0
0
0
0
0
0
0
0
0
0
0
0
0
0
0
0
0
0
0
0
0
0
0
0
0
0
0
0
0
0
0
0
0
0
0
0
0
0
0
0
0
0
0
0
0
0
0
0
0
0
0
0
0
0
0
0
0
0
0
0
0
0
0
0
0
0
0
0
0
0
0
0
0
0
0
0
0
0
0
0
0
0
0
0
0
0
0
0
0
0
0
0
0
0
0
0
0
0
0
0
0
0
0
0
0
0
0
0
0
0
0
0
0
0
0
0
0
0
0
0
0
0
0
0
0
0
0
0
0
0
0
0
0
0
0
0
0
0
0
0
0
0
0
0
0
0
0
0
0
0
0
0
0
0
0
0
0
0
0
0
0
0
0
0
0
0
0
0
0
0
0
0
0
0
0
0
0
0
0
0
0
0
0
0
0
0
0
0
0
0
0
0
0
0
0
0
0
0
0
0
0
0
0
0
0
0
0
0
0
0
0
0
0
0
0
0
0
0
0
0
0
0
0
0
0
0
0
0
0
0
0
0
0
0
0
0
0
0
0
0
0
0
0
0
0
0
0
0
0
0
0
0
0
0
0
0
0
0
0
0
0
0
0
0
0
0
0
0
0
0
0
0
0
0
0
0
0
0
0
0
0
0
0
0
0
0
0
0
0
0
0
0
0
0
0
0
0
0
0
0
0
0
0
0
0
0
0
0
0
0
0
0
0
0
0
0
0
0
0
0
0
0
0
0
0
0
0
0
0
0
0
0
0
0
0
0
0
0
0
0
0
0
0
0
0
0
0
)


1099
(
0
0
0
0
0
0
0
0
0
0
0
0
0
0
0
0
0
0
0
0
0
0
0
0
0
0
0
0
0
0
0
0
0
0
0
0
0
0
0
0
0
0
0
0
0
0
0
0
0
0
0
0
0
0
0
0
0
0
0
0
0
0
0
0
0
0
0
0
0
0
0
0
0
0
0
0
0
0
0
0
0
0
0
0
0
0
0
0
0
0
0
0
0
0
0
0
0
0
0
0
0
0
0
0
0
0
0
0
0
0
0
0
0
0
0
0
0
0
0
0
0
0
0
0
0
0
0
0
0
0
0
0
0
0
0
0
0
0
0
0
0
0
0
0
0
0
0
0
0
0
0
0
0
0
0
0
0
0
0
0
0
0
0
0
0
0
0
0
0
0
0
0
0
0
0
0
0
0
0
0
0
0
0
0
0
0
0
0
0
0
0
0
0
0
0
0
0
0
0
0
0
0
0
0
0
0
0
0
0
0
0
0
0
0
0
0
0
0
0
0
0
0
0
0
0
0
0
0
0
0
0
0
0
0
0
0
0
0
0
0
0
0
0
0
0
0
0
0
0
0
0
0
180.4505
0
0
180.4505
180.38949
0
0
0
0
180.4505
180.4505
0
0
0
0
0
0
0
180.38949
0
0
0
0
0
0
0
0
0
0
0
0
0
180.38949
0
0
0
0
0
0
0
0
0
0
0
0
0
0
180.4505
180.4505
0
0
0
0
0
0
0
180.4505
180.4505
180.4505
180.4505
0
0
0
0
0
0
0
0
0
0
0
0
0
0
0
0
0
0
0
0
0
0
0
0
0
0
0
0
0
0
0
0
0
0
0
0
0
0
0
0
0
0
0
0
0
0
0
0
0
0
0
0
0
0
0
0
0
0
0
0
0
0
0
0
0
0
0
0
0
0
0
0
0
0
0
0
0
0
0
0
0
0
0
0
0
0
0
0
0
0
0
0
0
0
0
0
0
0
0
0
0
0
0
0
0
0
0
0
0
0
0
0
0
0
0
0
0
0
0
0
0
0
0
0
0
0
0
0
0
0
0
0
0
0
0
0
0
0
0
0
0
0
0
0
0
0
0
0
0
0
0
0
0
0
0
0
0
0
0
0
0
0
0
0
0
0
0
0
0
0
0
0
0
0
0
0
0
0
0
0
0
0
0
0
0
0
0
0
0
0
0
0
0
0
0
0
0
0
0
0
0
0
0
0
0
0
0
0
0
0
0
0
0
0
0
0
0
0
0
0
0
0
0
0
0
0
0
0
0
0
0
0
0
0
0
0
0
0
0
0
0
0
0
0
0
0
0
0
0
0
0
0
0
0
0
0
0
0
0
0
0
0
0
0
0
0
0
0
0
0
0
0
0
0
0
0
0
0
0
0
0
0
0
0
0
0
0
180.4505
0
0
0
0
0
0
0
0
0
0
0
0
0
0
0
0
0
180.4505
180.4505
0
180.4505
180.4505
0
180.4505
180.4505
0
180.4505
180.4505
0
0
0
180.4505
180.4505
0
0
180.4505
0
180.4505
180.4505
180.4505
180.4505
180.4505
180.4505
0
180.4505
180.4505
180.4505
0
180.4505
180.4505
180.4505
0
0
0
0
0
0
0
0
0
0
0
0
0
0
0
0
0
0
0
0
0
0
0
0
180.4505
180.4505
180.4505
0
180.4505
180.4505
0
180.4505
180.4505
0
180.4505
180.4505
0
0
0
0
0
0
0
0
0
0
0
180.4505
180.4505
180.4505
0
180.4505
180.4505
180.4505
0
0
180.4505
180.4505
180.4505
0
0
0
0
0
0
0
0
0
0
0
0
0
0
0
0
0
0
0
0
0
0
0
0
0
0
0
0
0
0
0
0
0
0
0
0
0
0
0
0
0
0
0
0
0
0
0
0
0
0
0
0
0
0
0
0
0
0
0
0
0
0
0
0
0
0
0
0
0
0
0
0
0
0
0
0
0
0
0
0
0
0
0
0
0
0
0
0
0
0
0
0
0
0
0
0
0
0
0
0
0
0
0
0
0
0
0
0
0
0
0
0
0
0
0
0
0
0
0
0
0
0
0
0
0
0
0
0
0
0
0
0
0
0
0
0
0
0
0
0
0
0
0
0
0
0
0
0
0
0
0
0
0
0
0
0
0
0
0
0
0
0
0
0
0
0
0
0
0
0
0
0
0
0
0
0
0
0
0
0
0
0
0
0
0
0
0
0
0
0
0
0
0
0
0
0
0
0
0
0
0
0
0
0
0
0
0
0
0
0
0
0
0
0
0
0
0
0
0
0
0
0
0
0
0
0
0
0
0
0
0
0
0
0
0
0
0
0
0
0
0
0
0
0
0
0
0
0
0
0
0
0
0
0
0
0
0
0
0
0
0
0
0
0
0
0
0
0
0
0
0
0
0
0
0
0
0
0
0
0
0
0
0
0
0
0
0
0
0
0
0
0
0
0
0
0
0
0
0
0
0
0
0
0
0
0
0
0
0
0
0
0
0
0
0
0
0
0
0
0
0
0
0
0
0
0
0
0
0
0
0
0
0
0
0
0
0
0
0
0
0
0
0
0
0
0
0
0
0
0
0
0
0
0
0
0
0
0
0
0
0
0
0
0
0
0
0
0
0
0
0
0
0
0
0
0
0
0
0
0
0
0
0
0
0
0
0
0
0
)

)


// ************************************************************************* //
