/*--------------------------------*- C++ -*----------------------------------*\
  =========                 |
  \\      /  F ield         | OpenFOAM: The Open Source CFD Toolbox
   \\    /   O peration     | Website:  https://openfoam.org
    \\  /    A nd           | Version:  8
     \\/     M anipulation  |
\*---------------------------------------------------------------------------*/
/*   Windows 32 and 64 bit porting by blueCAPE: http://www.bluecape.com.pt   *\
|  Based on Windows porting (2.0.x v4) by Symscape: http://www.symscape.com   |
\*---------------------------------------------------------------------------*/
FoamFile
{
    version     2.0;
    format      ascii;
    class       scalarListList;
    location    "constant/vegetation";
    object      sunViewCoeff;
}
// * * * * * * * * * * * * * * * * * * * * * * * * * * * * * * * * * * * * * //


5
(

659
(
501.05251
501.05251
501.05251
501.05251
501.05251
501.05251
501.05251
447.25315
501.05251
501.05251
501.05251
180.61422
499.08218
501.05251
501.05251
437.61583
501.05251
501.05251
501.05251
501.05251
501.05251
501.05251
501.05251
501.05251
501.05251
501.05251
501.05251
501.05251
501.05251
501.05251
501.05251
501.05251
258.83108
501.05251
364.24138
501.05251
501.05251
444.3695
259.77917
501.05251
501.05251
501.05251
501.05251
501.05251
501.05251
501.05251
501.05251
501.05251
501.05251
501.05251
501.05251
501.05251
501.05251
501.05251
501.05251
501.05251
501.05251
501.05251
501.05251
501.05251
501.05251
501.05251
292.54279
501.05251
501.05251
501.05251
501.05251
334.07251
501.05251
449.68791
165.74119
401.77555
501.05251
501.05251
501.05251
501.05251
501.05251
81.062547
81.062547
81.062547
81.062547
81.062547
81.062547
81.062547
81.062547
81.062547
81.062547
81.062547
81.062547
81.062547
81.062547
81.062547
81.062547
81.062547
81.062547
81.062547
81.062547
81.062547
81.062547
81.062547
81.062547
81.062547
81.062547
81.062547
81.062547
81.062547
81.062547
81.062547
81.062547
81.062547
81.062547
81.062547
81.062547
81.062547
81.062547
81.062547
81.062547
81.062547
81.062547
81.062547
81.062547
81.062547
81.062547
81.062547
81.062547
81.062547
81.062547
81.062547
81.062547
81.062547
81.062547
81.062547
81.062547
81.062547
81.062547
81.062547
81.062547
81.062547
81.062547
81.062547
81.062547
81.062547
81.062547
81.062547
81.062547
81.062547
81.062547
81.062547
81.062547
81.062547
81.062547
81.062547
81.062547
81.062547
81.062547
81.062547
81.062547
81.062547
81.062547
81.062547
81.062547
81.062547
81.062547
81.062547
81.062547
81.062547
81.062547
81.062547
81.062547
81.062547
81.062547
81.062547
81.062547
81.062547
81.062547
81.062547
81.062547
81.062547
81.062547
81.062547
81.062547
81.062547
81.062547
81.062547
81.062547
81.062547
81.062547
81.062547
81.062547
81.062547
81.062547
81.062547
81.062547
81.062547
81.062547
81.062547
81.062547
81.062547
81.062547
81.062547
81.062547
81.062547
81.062547
81.062547
81.062547
81.062547
81.062547
81.062547
81.062547
81.062547
81.062547
81.062547
81.062547
81.062547
81.062547
81.062547
81.062547
81.062547
81.062547
81.062547
81.062547
81.062547
81.062547
81.062547
81.062547
81.062547
81.062547
81.062547
81.062547
81.062547
81.062547
81.062547
81.062547
81.062547
81.062547
81.062547
81.062547
81.062547
81.062547
81.062547
81.062547
81.062547
81.062547
81.062547
81.062547
81.062547
81.062547
81.062547
81.062547
81.062547
81.062547
81.062547
81.062547
81.062547
81.062547
81.062547
81.062547
81.062547
81.062547
81.062547
81.062547
81.062547
81.062547
81.062547
81.062547
81.062547
81.062547
81.062547
81.062547
81.062547
81.062547
81.062547
81.062547
81.062547
81.062547
81.062547
81.062547
81.062547
81.062547
81.062547
81.062547
81.062547
81.062547
81.062547
81.062547
81.062547
81.062547
81.062547
81.062547
81.062547
81.062547
81.062547
81.062547
81.062547
81.062547
81.062547
81.062547
81.062547
81.062547
81.062547
81.062547
81.062547
81.062547
81.062547
81.062547
81.062547
81.062547
81.062547
81.062547
81.062547
81.062547
81.062547
81.062547
81.062547
81.062547
81.062547
81.062547
81.062547
81.062547
81.062547
81.062547
81.062547
81.062547
501.05251
81.062547
81.062547
81.062547
81.062547
81.062547
81.062547
81.062547
81.062547
81.062547
81.062547
81.062547
81.062547
81.062547
81.062547
81.062547
81.062547
81.062547
501.05251
501.05251
81.062547
501.05251
501.05251
81.062547
501.05251
501.05251
81.062547
501.05251
501.05251
81.062547
81.062547
81.062547
501.05251
501.05251
81.062547
81.062547
501.05251
81.062547
501.05251
501.05251
501.05251
501.05251
501.05251
501.05251
81.062547
501.05251
501.05251
501.05251
81.062547
501.05251
501.05251
501.05251
81.062547
81.062547
81.062547
81.062547
81.062547
81.062547
81.062547
81.062547
81.062547
81.062547
81.062547
81.062547
81.062547
81.062547
81.062547
81.062547
81.062547
81.062547
81.062547
81.062547
81.062547
81.062547
81.062547
81.062547
501.05251
501.05251
501.05251
81.062547
501.05251
501.05251
81.062547
501.05251
501.05251
81.062547
501.05251
501.05251
81.062547
81.062547
81.062547
81.062547
81.062547
81.062547
81.062547
81.062547
81.062547
81.062547
81.062547
501.05251
501.05251
501.05251
81.062547
501.05251
501.05251
501.05251
81.062547
81.062547
501.05251
501.05251
501.05251
81.062547
81.062547
81.062547
81.062547
81.062547
81.062547
81.062547
81.062547
81.062547
81.062547
81.062547
81.062547
81.062547
81.062547
81.062547
81.062547
81.062547
81.062547
81.062547
81.062547
81.062547
81.062547
81.062547
81.062547
81.062547
81.062547
81.062547
81.062547
81.062547
81.062547
81.062547
81.062547
81.062547
81.062547
81.062547
81.062547
81.062547
81.062547
81.062547
81.062547
81.062547
81.062547
81.062547
81.062547
81.062547
81.062547
81.062547
81.062547
81.062547
81.062547
81.062547
81.062547
81.062547
81.062547
81.062547
81.062547
81.062547
81.062547
81.062547
81.062547
81.062547
81.062547
81.062547
81.062547
81.062547
81.062547
81.062547
81.062547
81.062547
81.062547
81.062547
81.062547
81.062547
81.062547
81.062547
81.062547
81.062547
81.062547
81.062547
81.062547
81.062547
81.062547
81.062547
81.062547
81.062547
81.062547
81.062547
81.062547
81.062547
81.062547
81.062547
81.062547
81.062547
81.062547
81.062547
81.062547
81.062547
81.062547
81.062547
81.062547
81.062547
81.062547
81.062547
81.062547
81.062547
81.062547
81.062547
81.062547
81.062547
81.062547
81.062547
81.062547
81.062547
81.062547
81.062547
81.062547
81.062547
81.062547
81.062547
81.062547
81.062547
81.062547
81.062547
81.062547
81.062547
81.062547
81.062547
81.062547
81.062547
81.062547
81.062547
81.062547
81.062547
81.062547
81.062547
81.062547
81.062547
81.062547
81.062547
81.062547
81.062547
81.062547
81.062547
81.062547
81.062547
81.062547
81.062547
81.062547
81.062547
81.062547
81.062547
81.062547
81.062547
81.062547
81.062547
81.062547
81.062547
81.062547
81.062547
81.062547
81.062547
81.062547
81.062547
81.062547
81.062547
81.062547
81.062547
81.062547
81.062547
81.062547
81.062547
81.062547
81.062547
81.062547
81.062547
81.062547
81.062547
81.062547
81.062547
81.062547
81.062547
268.14905
193.28289
135.36116
34.51668
368.38582
20.256834
336.70452
2.7217959
205.84084
49.539406
0
28.629409
0
94.201716
0
166.62316
26.281074
0
416.83611
151.82617
178.47161
234.51241
48.332888
257.32511
341.8489
15.666049
0
27.261798
0
14.636642
397.89069
103.59202
81.375151
179.71006
398.55478
0
0
253.25578
189.36396
40.035861
0
19.743058
49.068622
42.047716
)


659
(
0
284.54856
284.19254
284.54856
284.54856
284.54856
284.54856
223.35566
284.54856
284.54856
245.8078
231.02752
281.55012
284.54856
284.54856
160.29015
284.54856
282.77255
275.7118
284.54856
284.54856
0
0
198.54069
284.54856
284.54856
0
0
0
278.45998
284.54856
284.54856
234.4092
284.54856
123.92591
284.54856
284.54856
165.36861
186.49801
284.54856
151.18535
284.54856
0
284.54856
284.54856
0
0
0
0
0
0
0
0
0
284.54856
284.54856
284.54856
76.081808
284.54856
284.35996
284.54856
284.54856
242.17914
237.07342
284.54856
284.54856
284.54856
127.64211
284.54856
180.64103
128.26592
284.54856
284.54856
262.32752
0
0
0
0
0
0
0
0
0
0
0
0
0
0
0
0
0
0
0
0
0
0
0
0
0
0
0
0
0
0
0
0
0
0
0
0
0
0
0
0
0
0
0
0
0
0
0
0
0
0
0
0
0
0
0
0
0
0
0
0
0
0
0
0
0
0
0
0
0
0
0
0
0
0
0
0
0
0
0
0
0
0
0
0
0
0
0
0
0
0
0
0
0
0
0
0
0
0
0
0
0
0
0
0
0
0
0
0
0
0
0
0
0
0
0
0
0
0
0
0
0
0
0
0
0
0
0
0
0
0
0
0
0
0
0
0
0
0
0
0
0
0
0
0
0
0
0
0
0
0
0
0
0
0
0
0
0
0
0
0
0
0
0
0
0
0
0
0
0
0
0
0
0
0
0
0
0
0
0
0
0
0
0
0
0
0
0
0
0
0
0
0
0
0
0
0
0
0
0
0
0
0
0
0
0
0
0
0
0
0
0
0
0
0
0
0
0
0
0
0
0
0
0
0
0
0
0
0
0
0
0
0
0
0
0
0
0
0
0
0
0
0
0
0
0
0
0
0
0
284.54856
0
0
0
0
0
0
0
0
0
0
0
0
0
0
0
0
0
284.54856
284.54856
0
284.54856
284.54856
0
284.54856
284.54856
0
284.54856
284.54856
0
0
0
284.54856
284.54856
0
0
284.54856
0
284.54856
284.54856
284.54856
284.54856
284.54856
284.54856
0
284.54856
284.54856
284.54856
0
284.54856
284.54856
284.54856
0
0
0
0
0
0
0
0
0
0
0
0
0
0
0
0
0
0
0
0
0
0
0
0
284.54856
284.54856
284.54856
0
284.54856
284.54856
0
284.54856
284.54856
0
284.54856
284.54856
0
0
0
0
0
0
0
0
0
0
0
284.54856
284.54856
284.54856
0
284.54856
284.54856
284.54856
0
0
284.54856
284.54856
284.54856
0
0
0
0
0
0
0
0
0
0
0
0
0
0
0
0
0
0
0
0
0
0
0
0
0
0
0
0
0
0
0
0
0
0
0
0
0
0
0
0
0
0
0
0
0
0
0
0
0
0
0
0
0
0
0
0
0
0
0
0
0
0
0
0
0
0
0
0
0
0
0
0
0
0
0
0
0
0
0
0
0
0
0
0
0
0
0
0
0
0
0
0
0
0
0
0
0
0
0
0
0
0
0
0
0
0
0
0
0
0
0
0
0
0
0
0
0
0
0
0
0
0
0
0
0
0
0
0
0
0
0
0
0
0
0
0
0
0
0
0
0
0
0
0
0
0
0
0
0
0
0
0
0
0
0
0
0
0
0
0
0
0
0
0
0
0
0
0
0
0
0
0
0
0
0
0
0
0
0
0
0
194.12426
51.966057
120.91593
9.1238228
166.68538
0
152.80977
27.757636
164.73216
31.508837
12.866713
9.0672384
0
0
0
25.978559
0
23.961578
270.68417
63.000017
119.88527
80.90282
0
166.44628
158.47004
2.3509945
0
15.805925
0
13.112339
223.4743
5.8959216
115.98921
40.988828
205.50062
17.864888
0
166.53978
66.69428
0
0
0
13.473377
0
)


659
(
0
247.54772
0
0
247.54772
216.68186
0
0
0
0
0
0
0
0
0
0
246.39114
0
0
233.83981
247.54772
0
0
0
247.54772
247.54772
0
0
0
0
0
0
0
243.07882
0
0
247.54772
0
0
247.54772
0
0
0
0
0
0
0
0
0
0
0
0
0
0
247.54772
247.54772
0
0
247.54772
75.259441
237.12983
247.54772
0
0
247.54772
247.54772
0
0
247.54772
0
0
0
228.98816
186.4645
0
0
0
0
0
0
0
0
0
0
0
0
0
0
0
0
0
0
0
0
0
0
0
0
0
0
0
0
0
0
0
0
0
0
0
0
0
0
0
0
0
0
0
0
0
0
0
0
0
0
0
0
0
0
0
0
0
0
0
0
0
0
0
0
0
0
0
0
0
0
0
0
0
0
0
0
0
0
0
0
0
0
0
0
0
0
0
0
0
0
0
0
0
0
0
0
0
0
0
0
0
0
0
0
0
0
0
0
0
0
0
0
0
0
0
0
0
0
0
0
0
0
0
0
0
0
0
0
0
0
0
0
0
0
0
0
0
0
0
0
0
0
0
0
0
0
0
0
0
0
0
0
0
0
0
0
0
0
0
0
0
0
0
0
0
0
0
0
0
0
0
0
0
0
0
0
0
0
0
0
0
0
0
0
0
0
0
0
0
0
0
0
0
0
0
0
0
0
0
0
0
0
0
0
0
0
0
0
0
0
0
0
0
0
0
0
0
0
0
0
0
0
0
0
0
0
0
0
0
0
0
0
0
0
0
0
0
0
0
0
0
0
0
0
0
0
0
0
0
247.54772
0
0
0
0
0
0
0
0
0
0
0
0
0
0
0
0
0
247.54772
247.54772
0
247.54772
247.54772
0
247.54772
247.54772
0
247.54772
247.54772
0
0
0
247.54772
247.54772
0
0
247.54772
0
247.54772
247.54772
247.54772
247.54772
247.54772
247.54772
0
247.54772
247.54772
247.54772
0
247.54772
247.54772
247.54772
0
0
0
0
0
0
0
0
0
0
0
0
0
0
0
0
0
0
0
0
0
0
0
0
247.54772
247.54772
247.54772
0
247.54772
247.54772
0
247.54772
247.54772
0
247.54772
247.54772
0
0
0
0
0
0
0
0
0
0
0
247.54772
247.54772
247.54772
0
247.54772
247.54772
247.54772
0
0
247.54772
247.54772
247.54772
0
0
0
0
0
0
0
0
0
0
0
0
0
0
0
0
0
0
0
0
0
0
0
0
0
0
0
0
0
0
0
0
0
0
0
0
0
0
0
0
0
0
0
0
0
0
0
0
0
0
0
0
0
0
0
0
0
0
0
0
0
0
0
0
0
0
0
0
0
0
0
0
0
0
0
0
0
0
0
0
0
0
0
0
0
0
0
0
0
0
0
0
0
0
0
0
0
0
0
0
0
0
0
0
0
0
0
0
0
0
0
0
0
0
0
0
0
0
0
0
0
0
0
0
0
0
0
0
0
0
0
0
0
0
0
0
0
0
0
0
0
0
0
0
0
0
0
0
0
0
0
0
0
0
0
0
0
0
0
0
0
0
0
0
0
0
0
0
0
0
0
0
0
0
0
0
0
0
0
0
0
0
0
0
0
0
0
0
0
0
0
0
0
0
0
0
0
0
0
0
0
0
0
0
0
0
0
0
0
0
12.718037
162.47566
0
0
0
0
0
0
142.6418
14.265245
0
0
0
0
0
)


659
(
0
0
0
0
78.572541
0
0
0
0
0
0
0
0
0
0
0
0
0
0
0
0
0
0
0
187.94498
218.93877
0
0
0
0
0
0
0
0
0
0
0
0
0
108.50307
0
0
0
0
0
0
0
0
0
0
0
0
0
0
218.93877
0
0
0
218.83062
66.56175
0
218.90929
0
0
216.22836
218.93877
0
0
0
0
0
0
0
0
0
0
0
0
0
0
0
0
0
0
0
0
0
0
0
0
0
0
0
0
0
0
0
0
0
0
0
0
0
0
0
0
0
0
0
0
0
0
0
0
0
0
0
0
0
0
0
0
0
0
0
0
0
0
0
0
0
0
0
0
0
0
0
0
0
0
0
0
0
0
0
0
0
0
0
0
0
0
0
0
0
0
0
0
0
0
0
0
0
0
0
0
0
0
0
0
0
0
0
0
0
0
0
0
0
0
0
0
0
0
0
0
0
0
0
0
0
0
0
0
0
0
0
0
0
0
0
0
0
0
0
0
0
0
0
0
0
0
0
0
0
0
0
0
0
0
0
0
0
0
0
0
0
0
0
0
0
0
0
0
0
0
0
0
0
0
0
0
0
0
0
0
0
0
0
0
0
0
0
0
0
0
0
0
0
0
0
0
0
0
0
0
0
0
0
0
0
0
0
0
0
0
0
0
0
0
0
0
0
0
0
0
0
0
0
0
0
0
0
0
0
0
0
0
0
0
0
0
0
0
0
0
0
0
0
0
0
0
0
0
0
0
0
0
0
0
0
0
0
218.93877
0
0
0
0
0
0
0
0
0
0
0
0
0
0
0
0
0
218.93877
218.93877
0
218.93877
218.93877
0
218.93877
218.93877
0
218.93877
218.93877
0
0
0
218.93877
218.93877
0
0
218.93877
0
218.93877
218.93877
218.93877
218.93877
218.93877
218.93877
0
218.93877
218.93877
218.93877
0
218.93877
218.93877
218.93877
0
0
0
0
0
0
0
0
0
0
0
0
0
0
0
0
0
0
0
0
0
0
0
0
218.93877
218.93877
218.93877
0
218.93877
218.93877
0
218.93877
218.93877
0
218.93877
218.93877
0
0
0
0
0
0
0
0
0
0
0
218.93877
218.93877
218.93877
0
218.93877
218.93877
218.93877
0
0
218.93877
218.93877
218.93877
0
0
0
0
0
0
0
0
0
0
0
0
0
0
0
0
0
0
0
0
0
0
0
0
0
0
0
0
0
0
0
0
0
0
0
0
0
0
0
0
0
0
0
0
0
0
0
0
0
0
0
0
0
0
0
0
0
0
0
0
0
0
0
0
0
0
0
0
0
0
0
0
0
0
0
0
0
0
0
0
0
0
0
0
0
0
0
0
0
0
0
0
0
0
0
0
0
0
0
0
0
0
0
0
0
0
0
0
0
0
0
0
0
0
0
0
0
0
0
0
0
0
0
0
0
0
0
0
0
0
0
0
0
0
0
0
0
0
0
0
0
0
0
0
0
0
0
0
0
0
0
0
0
0
0
0
0
0
0
0
0
0
0
0
0
0
0
0
0
0
0
0
0
0
0
0
0
0
0
0
0
0
0
0
0
0
0
0
0
0
0
0
0
0
0
0
0
0
0
0
0
0
0
0
0
0
0
0
0
0
0
0
0
0
0
0
0
0
0
0
0
0
0
0
0
)


659
(
0
0
0
0
0
0
0
0
0
0
0
0
0
0
0
0
0
0
0
0
0
0
0
0
0
0
0
0
0
0
0
0
0
0
0
0
0
0
0
0
0
0
0
0
0
0
0
0
0
0
0
0
0
0
81.941498
0
0
0
0
54.860549
0
180.4217
0
0
90.044487
36.900175
0
0
0
0
0
0
0
0
0
0
0
0
0
0
0
0
0
0
0
0
0
0
0
0
0
0
0
0
0
0
0
0
0
0
0
0
0
0
0
0
0
0
0
0
0
0
0
0
0
0
0
0
0
0
0
0
0
0
0
0
0
0
0
0
0
0
0
0
0
0
0
0
0
0
0
0
0
0
0
0
0
0
0
0
0
0
0
0
0
0
0
0
0
0
0
0
0
0
0
0
0
0
0
0
0
0
0
0
0
0
0
0
0
0
0
0
0
0
0
0
0
0
0
0
0
0
0
0
0
0
0
0
0
0
0
0
0
0
0
0
0
0
0
0
0
0
0
0
0
0
0
0
0
0
0
0
0
0
0
0
0
0
0
0
0
0
0
0
0
0
0
0
0
0
0
0
0
0
0
0
0
0
0
0
0
0
0
0
0
0
0
0
0
0
0
0
0
0
0
0
0
0
0
0
0
0
0
0
0
0
0
0
0
0
0
0
0
0
0
0
0
0
0
0
0
0
0
0
0
0
0
0
0
0
0
0
0
0
0
0
0
0
0
0
0
0
0
0
0
0
0
0
0
0
0
0
0
180.4505
0
0
0
0
0
0
0
0
0
0
0
0
0
0
0
0
0
180.4505
180.4505
0
180.4505
180.4505
0
180.4505
180.4505
0
180.4505
180.4505
0
0
0
180.4505
180.4505
0
0
180.4505
0
180.4505
180.4505
180.4505
180.4505
180.4505
180.4505
0
180.4505
180.4505
180.4505
0
180.4505
180.4505
180.4505
0
0
0
0
0
0
0
0
0
0
0
0
0
0
0
0
0
0
0
0
0
0
0
0
180.4505
180.4505
180.4505
0
180.4505
180.4505
0
180.4505
180.4505
0
180.4505
180.4505
0
0
0
0
0
0
0
0
0
0
0
180.4505
180.4505
180.4505
0
180.4505
180.4505
180.4505
0
0
180.4505
180.4505
180.4505
0
0
0
0
0
0
0
0
0
0
0
0
0
0
0
0
0
0
0
0
0
0
0
0
0
0
0
0
0
0
0
0
0
0
0
0
0
0
0
0
0
0
0
0
0
0
0
0
0
0
0
0
0
0
0
0
0
0
0
0
0
0
0
0
0
0
0
0
0
0
0
0
0
0
0
0
0
0
0
0
0
0
0
0
0
0
0
0
0
0
0
0
0
0
0
0
0
0
0
0
0
0
0
0
0
0
0
0
0
0
0
0
0
0
0
0
0
0
0
0
0
0
0
0
0
0
0
0
0
0
0
0
0
0
0
0
0
0
0
0
0
0
0
0
0
0
0
0
0
0
0
0
0
0
0
0
0
0
0
0
0
0
0
0
0
0
0
0
0
0
0
0
0
0
0
0
0
0
0
0
0
0
0
0
0
0
0
0
0
0
0
0
0
0
0
0
0
0
0
0
0
0
0
0
0
0
0
0
0
0
0
0
0
0
0
0
0
0
0
0
0
0
0
0
0
)

)


// ************************************************************************* //
