/*--------------------------------*- C++ -*----------------------------------*\
  =========                 |
  \\      /  F ield         | OpenFOAM: The Open Source CFD Toolbox
   \\    /   O peration     | Website:  https://openfoam.org
    \\  /    A nd           | Version:  8
     \\/     M anipulation  |
\*---------------------------------------------------------------------------*/
/*   Windows 32 and 64 bit porting by blueCAPE: http://www.bluecape.com.pt   *\
|  Based on Windows porting (2.0.x v4) by Symscape: http://www.symscape.com   |
\*---------------------------------------------------------------------------*/
FoamFile
{
    version     2.0;
    format      ascii;
    class       scalarListList;
    location    "constant/air";
    object      divqrsw;
}
// * * * * * * * * * * * * * * * * * * * * * * * * * * * * * * * * * * * * * //


5
(

6047
(
0
0
0
0
0
0
0
0
0
0
0
0
0
0
0
0
0
0
0
0
0
0
0
0
0
0
0
0
0
0
0
0
0
0
0
-90.813231
0
0
0
0
0
-95.15729
0
0
0
0
0
0
0
0
0
0
0
0
0
0
0
0
0
0
0
0
0
0
0
0
0
0
0
0
0
0
0
0
0
0
0
0
0
0
0
0
0
0
0
0
0
0
0
0
0
0
0
0
0
0
0
0
0
0
0
0
0
0
0
0
0
0
0
0
0
0
0
0
0
0
0
0
0
0
0
0
-73.644109
0
0
-175.58472
0
0
0
-98.917588
0
0
0
0
-186.59152
-122.15857
-96.899791
0
0
0
0
0
0
0
0
0
-148.22699
0
0
-113.97745
-92.269799
0
0
0
0
0
0
0
0
0
0
0
0
0
0
0
0
0
0
0
0
0
0
0
0
0
0
0
0
0
0
0
0
0
0
0
0
0
0
0
0
0
0
0
0
0
0
0
0
0
0
0
0
0
0
0
0
0
0
0
0
0
0
0
0
0
0
0
0
0
0
0
0
0
0
0
0
0
0
0
0
0
0
0
0
0
0
0
0
0
0
0
0
0
0
0
0
0
0
0
0
0
0
0
0
0
0
0
0
0
0
0
0
0
0
0
0
0
0
0
0
0
0
0
0
0
0
0
0
0
0
0
0
0
0
0
0
0
0
0
0
0
0
0
0
0
0
0
0
0
0
0
-191.08093
0
-108.70939
0
0
0
0
0
0
0
0
0
0
0
0
0
0
-64.763362
0
0
0
0
0
0
0
0
0
0
0
-52.617261
0
0
0
0
0
0
0
0
0
0
0
0
0
0
0
0
0
0
0
0
0
0
0
0
0
0
0
0
0
0
0
0
0
0
0
0
0
0
0
0
0
0
0
0
0
0
0
0
0
0
0
0
0
0
0
0
0
0
0
0
0
0
0
0
0
0
0
0
0
0
0
0
0
0
0
0
0
0
0
0
0
0
0
0
0
0
0
0
0
0
0
0
0
0
0
0
0
0
0
0
0
0
0
0
0
0
0
0
0
0
0
0
0
0
0
0
0
0
0
0
0
0
0
0
0
0
0
0
0
0
0
0
0
0
0
0
0
0
0
0
0
0
0
0
0
0
0
0
0
0
0
0
0
-145.81071
-133.18364
0
0
0
0
-98.736039
0
0
0
-97.730615
0
-173.43593
0
0
-163.55478
-167.57689
-151.87456
0
0
0
0
0
0
0
0
0
0
0
0
0
0
0
-61.776533
-87.289776
0
0
-60.605211
-91.262612
0
0
0
0
0
0
0
0
0
0
0
0
0
0
0
0
0
0
0
0
0
0
0
0
0
0
0
0
0
0
0
0
0
0
0
0
0
0
0
0
0
0
0
0
0
0
0
0
0
0
0
0
0
0
0
0
0
0
0
0
0
0
0
0
0
0
0
0
0
0
0
0
0
0
0
0
0
0
0
0
0
0
0
0
0
0
0
0
0
0
0
0
0
0
0
0
0
0
0
0
0
0
0
0
0
0
0
0
0
0
0
0
-115.27018
0
0
0
0
-108.48032
0
-109.17651
-93.367767
0
0
0
-95.433498
0
0
0
0
0
0
0
0
0
0
0
0
0
0
0
0
0
0
0
0
0
0
0
0
0
0
0
-188.28169
0
0
0
0
0
-171.60981
0
0
0
-179.06771
-79.710973
0
0
0
-160.05977
0
0
0
0
0
0
0
0
0
0
0
0
0
0
0
0
0
0
0
0
0
0
0
0
0
0
0
0
0
0
0
0
0
0
0
0
0
0
0
0
0
0
0
0
0
0
0
0
0
0
0
0
0
0
0
0
0
0
0
0
0
0
0
0
0
0
0
0
0
0
0
0
0
0
0
0
0
0
0
0
0
0
0
0
0
0
0
0
0
0
0
0
0
0
0
0
0
0
0
0
0
0
0
0
0
0
0
0
0
0
0
0
0
0
0
0
0
0
0
0
0
0
0
0
0
0
0
0
0
-117.99853
-116.53602
-180.49299
0
-120.02779
-124.49611
0
0
0
0
0
0
0
0
0
0
0
0
-84.027383
0
0
0
0
0
0
0
0
0
0
0
0
-181.53787
-120.23006
-115.85805
0
0
0
0
0
0
0
-52.213082
0
0
-154.72208
0
0
-147.54753
-66.83321
0
0
-166.2119
0
-144.06093
0
-137.5424
0
0
0
-133.89152
0
0
-190.35539
-190.67923
-184.88573
-173.13782
-201.36503
-172.02429
-157.97642
-84.018152
-84.655239
-81.952381
-184.40829
-185.76442
-166.7397
-158.50829
-160.5363
-47.975363
0
-148.27505
-165.11101
0
-147.67501
0
0
0
-131.7475
0
0
0
0
0
0
0
0
0
0
0
0
0
0
0
0
0
0
0
0
0
0
0
0
0
0
0
0
0
0
0
-52.728064
0
0
-61.342018
0
-124.6743
0
-77.290459
-105.38579
-169.4642
-124.23146
-73.460725
-111.98897
-135.3429
0
0
0
-56.329605
0
-79.959693
0
-51.14078
0
0
0
-49.837673
0
0
-85.987719
0
0
-74.109115
-171.35537
-106.03885
-137.39766
-65.768101
0
-121.85622
0
-62.757184
-123.74428
0
0
0
0
-45.330773
0
0
0
0
0
0
0
0
0
0
0
0
0
0
0
0
0
0
0
0
0
0
0
0
0
0
0
0
0
0
0
0
0
0
0
0
0
0
0
0
0
0
0
0
0
0
0
0
0
0
0
0
0
0
0
0
0
0
0
0
0
0
0
0
0
0
0
0
0
0
0
0
0
0
0
0
0
0
0
0
0
0
0
0
0
0
0
0
0
0
0
0
0
0
0
0
0
0
0
0
0
0
0
0
0
0
0
0
0
0
0
0
0
0
0
0
0
0
0
0
0
0
0
0
0
0
0
0
0
0
0
0
0
0
0
0
0
0
0
0
0
0
0
0
0
0
0
0
0
0
0
0
0
0
0
0
0
0
0
0
0
0
0
0
0
0
0
0
0
0
0
0
0
0
0
0
0
0
0
0
0
0
0
0
0
0
0
0
0
0
0
0
0
0
0
0
0
0
0
0
0
0
0
0
0
0
0
0
0
0
0
0
0
0
0
0
0
0
0
0
0
0
0
0
0
0
0
0
0
0
0
0
0
0
0
0
0
0
0
0
0
0
0
0
0
0
0
0
0
0
0
0
0
0
0
0
0
0
0
0
0
0
0
0
0
0
0
0
0
0
0
0
0
0
0
0
0
0
0
0
0
0
0
0
0
0
0
0
0
0
0
0
0
0
0
0
0
0
0
0
0
0
0
0
0
0
0
0
0
0
0
0
0
0
0
0
0
0
0
0
0
0
0
0
0
0
0
0
0
0
0
0
0
0
0
0
0
0
0
0
0
0
0
0
0
0
0
0
0
0
0
0
0
0
0
0
0
0
0
0
0
0
0
0
0
0
0
0
0
0
0
0
0
0
0
0
0
0
0
0
0
0
0
0
0
0
0
0
0
0
0
0
0
0
0
0
0
0
0
0
0
0
0
0
0
0
0
0
0
0
0
0
0
0
0
0
0
0
0
0
0
0
0
0
0
0
0
0
0
0
0
0
0
0
0
0
0
0
0
0
0
0
0
0
0
0
0
0
0
0
0
0
0
0
0
0
0
0
0
0
0
0
0
0
0
0
0
0
0
0
0
0
0
0
0
0
0
0
0
0
0
0
0
0
0
0
0
0
0
0
0
0
0
0
0
0
0
0
0
0
0
0
0
0
0
0
0
0
0
0
0
0
0
0
0
0
0
0
0
0
0
0
0
0
0
0
0
0
0
0
0
0
0
0
0
0
0
0
0
0
0
0
0
0
0
0
0
0
0
0
0
0
0
0
0
0
0
0
0
0
0
0
0
0
0
0
0
0
0
0
0
0
0
0
0
0
0
0
0
0
0
0
0
0
0
0
0
0
-126.55377
0
0
-166.13169
-132.05011
-193.84506
-133.85869
-157.67765
-85.74197
-89.440509
0
0
0
0
0
0
0
0
-74.095914
-194.08252
0
-133.0527
-152.81175
0
0
0
0
0
0
0
0
0
0
0
0
0
0
0
0
0
0
0
0
0
0
0
0
0
0
0
0
0
0
0
0
0
0
0
0
0
0
-97.5789
0
-103.8237
0
0
0
0
0
0
0
-45.806008
0
0
0
-82.76533
0
-73.313099
0
0
0
0
0
0
-68.222257
0
0
0
0
0
0
-57.408696
0
0
0
0
0
0
0
0
0
0
0
0
0
0
0
0
0
0
0
0
0
0
0
0
0
0
0
0
0
0
0
0
0
0
0
0
0
0
0
0
0
0
0
0
0
0
0
0
0
0
0
0
0
0
0
0
0
0
0
0
0
0
0
0
0
0
0
0
0
0
0
0
0
0
0
0
0
0
0
0
0
0
0
0
0
0
0
0
0
0
0
0
0
0
0
0
0
0
0
0
-40.095153
0
0
-57.888583
-57.682518
0
0
0
0
0
0
0
0
0
-80.453459
0
0
-65.974283
-68.552914
0
-74.180296
-43.735215
-50.879285
0
0
-49.615666
-44.303695
0
0
0
0
0
0
0
0
0
0
0
0
0
0
0
0
0
0
0
0
0
0
0
0
0
0
0
0
0
0
0
0
0
0
0
0
0
0
0
0
0
0
0
0
0
0
0
0
0
0
0
0
0
0
0
0
0
0
0
0
0
0
0
0
0
0
0
0
0
0
0
0
0
0
0
0
0
0
0
0
0
0
0
0
0
0
0
0
0
0
0
0
0
0
0
0
-146.84748
0
0
0
0
0
-90.493399
0
0
0
0
0
0
0
-158.34748
-150.91283
0
0
0
0
0
0
0
-82.285838
0
-57.706442
0
0
0
0
0
0
0
0
0
0
0
0
0
0
0
0
0
0
0
0
0
0
0
0
0
0
0
0
0
0
0
0
0
0
0
0
0
0
0
0
0
0
0
0
0
0
0
0
0
0
0
0
0
0
0
0
0
0
0
-170.74431
-160.46912
-186.97137
-177.9028
-167.24973
-163.75611
-189.29446
0
0
0
0
0
0
0
-83.823894
-88.63272
-71.719477
-108.82762
-130.61382
-118.17172
-123.98005
0
0
0
0
0
0
0
0
0
0
0
0
0
0
0
0
0
0
0
0
0
-130.13154
-125.16822
-127.74515
-157.84349
-148.56004
-150.05004
-156.92946
-110.23028
-88.007275
-87.44401
-111.71967
-84.414681
-111.45456
-106.25628
0
0
0
0
0
0
0
0
0
0
0
0
0
0
-128.92815
-106.01737
-118.26298
-127.59932
-136.577
-125.44239
-141.84198
-77.702718
-80.888975
-99.883424
0
-69.454586
-82.058861
-94.200321
0
0
0
0
0
0
0
0
0
0
0
0
0
0
0
0
0
0
0
0
0
0
0
0
0
0
0
0
0
0
0
0
0
0
0
0
0
0
0
0
0
0
0
0
0
0
0
0
0
0
0
0
0
0
0
0
0
0
0
0
0
0
0
0
0
0
0
0
0
0
0
0
0
0
0
0
0
0
0
0
0
0
0
0
0
0
0
0
0
0
0
0
0
0
0
0
0
0
0
0
0
0
0
0
0
0
0
0
0
0
0
0
0
0
0
0
0
0
0
0
0
0
0
0
0
0
0
0
0
0
0
0
0
0
0
0
0
0
0
0
0
0
0
0
0
0
0
0
0
0
0
0
0
0
0
0
0
0
0
0
0
0
0
0
0
0
0
0
0
0
0
0
0
0
0
0
0
0
-201.44679
-209.06257
-199.83397
-192.79988
-203.68814
-201.78887
-207.65689
0
0
0
0
0
0
0
-95.180709
-107.48065
-130.54153
-143.39502
-90.793281
-137.52838
-144.18843
0
0
0
0
0
0
0
0
0
0
0
0
0
0
0
0
0
0
0
0
0
0
0
0
0
0
0
0
0
0
0
0
0
0
0
0
0
0
0
0
0
0
0
0
0
0
0
0
0
0
0
0
0
0
0
0
0
0
0
0
0
0
0
0
0
0
0
0
0
0
0
0
0
0
0
0
0
0
0
0
0
0
0
0
0
0
0
0
0
0
0
0
0
0
0
0
0
0
0
0
0
0
0
0
0
0
0
0
0
0
0
0
0
0
0
0
0
0
0
0
0
0
0
0
0
0
0
0
0
0
0
0
0
0
0
0
0
0
0
0
0
0
0
0
0
0
0
0
0
0
0
0
0
0
0
0
0
0
0
0
0
0
0
0
0
0
0
0
0
0
0
0
0
0
0
0
0
0
0
0
-37.566889
0
-50.272751
0
-55.014523
0
0
-79.337995
-106.38538
-146.16305
-116.95082
-105.24322
-80.492759
-116.91602
-75.833806
-94.553295
-140.15191
-107.11037
-100.58867
-71.160646
-112.48525
0
0
0
0
0
0
0
-51.897637
-82.189127
0
0
0
0
-86.298245
-54.848346
0
-88.879121
0
0
0
-89.557537
0
0
-93.933253
0
-103.68302
0
0
-85.359227
-80.797822
-112.2556
-97.87469
-77.602194
-93.399429
-106.76216
0
0
0
0
0
0
0
0
0
0
0
0
0
0
0
0
-126.04719
0
0
-115.03496
0
-77.839427
-97.156778
-97.489556
-71.572408
-74.920658
-101.74134
-70.140012
0
0
0
0
0
0
0
-145.44177
-180.46296
-174.35844
-132.54531
-137.19331
-141.08771
-180.96038
-79.793947
0
-61.933914
0
-66.805022
0
-74.522315
-92.271366
0
-74.179146
0
0
-82.749578
-83.344068
-132.46635
-115.10881
-166.32725
-166.88071
-118.17705
-124.3735
-177.37719
-146.89188
-183.7028
-126.65031
-169.25455
-132.79102
-142.33311
-183.76564
-129.06954
-166.68033
-107.76035
-160.10262
-114.26292
-121.85627
-173.14054
-93.875944
-78.756006
0
0
0
-88.176995
-84.300763
0
0
0
0
0
0
0
0
0
0
0
0
0
0
0
0
0
0
0
0
0
0
0
0
0
0
0
0
0
0
0
0
0
0
0
0
0
0
0
0
0
0
0
0
0
0
0
0
0
0
0
0
0
0
0
0
-52.847899
-60.988486
-71.517113
-43.290586
-70.308766
-52.140933
-44.428754
-61.065679
-69.054102
-77.821951
-88.350131
-69.802129
-60.769317
-78.663356
-43.131694
0
0
0
-49.316666
0
0
-37.977967
0
0
0
-38.957416
0
0
-52.825409
-60.622983
-69.003617
-46.073368
-53.109563
-69.500626
-45.080895
-61.630388
-81.261033
-89.645478
-70.38422
-70.775908
-79.779951
-61.164122
-36.958341
0
0
0
0
0
0
0
0
0
0
0
0
0
0
0
0
0
0
0
0
0
0
0
0
0
0
0
0
0
0
0
0
0
0
0
0
0
0
0
0
0
0
0
0
0
0
0
0
-165.61427
-129.10171
-88.760797
0
-125.0444
0
-103.8867
0
0
0
0
0
0
0
0
0
0
0
0
0
-108.89823
-110.32619
0
0
-115.80674
0
0
0
0
0
0
0
0
0
0
0
0
0
0
0
0
0
0
-120.23914
0
0
-179.39152
-157.51363
-184.23672
-108.94825
-121.22672
-113.63326
-112.92943
0
-151.80475
-157.61599
0
-112.66781
0
0
0
0
0
0
0
0
0
0
-98.278719
-132.60939
-71.234749
0
-110.23983
0
-98.671218
0
0
-47.781871
0
0
0
0
-125.51868
0
-61.539408
0
0
-95.822202
0
0
0
0
0
0
0
0
0
0
0
0
0
0
0
0
0
0
0
0
0
0
0
0
0
0
0
0
0
-130.3918
0
-112.03789
-111.61942
-115.02149
-111.48042
-131.19599
-142.90243
-140.04343
-124.61581
-119.89054
-122.37423
-140.93212
-142.59074
-145.03618
-157.07009
-111.18041
-119.15856
-141.82245
-113.62657
-160.56587
-172.6129
-179.23364
-190.28667
-169.14496
-174.37091
-166.40322
-189.84232
-130.18569
0
-125.11669
-111.0617
-119.55501
-129.15847
-111.92359
-146.13458
-114.60076
-119.71881
-162.22772
-114.14321
-147.13946
-161.54018
-144.43912
-120.19303
-122.13061
-147.38409
-120.8645
-146.43045
-144.8679
0
0
0
0
0
0
0
0
0
0
0
0
0
0
0
0
0
0
0
0
0
0
0
0
0
0
0
0
0
0
0
0
0
0
0
0
-67.556632
-80.295802
-60.657432
0
0
0
0
0
0
0
0
0
0
0
0
0
0
0
0
0
0
0
0
0
0
0
0
0
0
0
0
0
0
0
0
0
0
-88.485152
0
0
-102.5409
0
-68.496659
0
-87.147355
-70.38018
-61.393262
-95.823885
0
0
0
0
0
0
0
-102.30199
0
0
-99.485589
0
-129.43754
0
-145.08717
-161.81341
-190.62291
-170.97484
-175.94745
-147.18471
-163.71785
-120.15325
0
-114.95181
-162.81873
0
-148.06663
-138.30363
-117.04562
-93.92057
-109.63954
-147.24624
-145.49189
-86.303983
-122.06221
0
-57.50504
0
-63.297758
-88.683948
-102.66787
-54.628843
0
0
0
0
0
0
0
-63.884431
0
0
-71.615883
-100.10849
-110.74718
0
-107.63187
-140.54459
-114.77064
-180.21406
-158.20896
-132.31599
-95.589428
-54.891094
0
0
-68.859782
0
-78.171261
-47.846317
0
0
-75.020813
0
0
-85.606049
0
-97.13841
-123.87587
-171.52261
-114.6617
-146.92687
-124.98462
-85.581931
0
-73.669455
0
-84.04512
-101.91438
-112.0982
-74.000695
0
0
0
0
0
0
0
0
-80.64137
0
-94.786836
-118.52902
-121.67702
-89.192316
-122.11313
-159.05151
-167.65648
-124.48227
-129.42445
-160.89184
-116.85979
-65.348712
0
-57.480567
0
-69.739245
0
0
-108.56244
-136.55758
-158.68083
-101.57749
-115.04077
-150.31195
-95.676868
0
0
-73.540055
0
-82.835567
0
0
-85.700702
-143.38418
-99.793783
-109.18633
-116.54007
-104.69957
-80.783919
0
0
-59.969332
0
-69.341371
0
0
0
0
-60.141486
0
0
0
-69.875117
0
0
0
0
0
0
0
-87.471113
-147.22424
-104.16502
-97.999263
-118.74878
-73.613689
-109.53979
0
-61.231925
0
0
0
-65.498447
0
0
-64.078619
0
0
-69.055762
0
0
-201.37727
-196.19667
-185.02828
-200.89586
-190.59898
-196.9433
-205.683
-195.86549
-183.79452
-202.57512
-175.0901
-196.03072
-173.286
-202.61764
-196.21918
-178.84848
-177.14174
-186.31839
-184.18086
-192.10295
-190.15989
-190.15738
-182.81617
-167.06412
-157.19387
-189.96374
-183.44201
-165.72107
-87.268083
-108.72541
-109.39636
-144.31466
-114.27566
-127.47455
-133.61384
-106.91198
-87.488498
-105.02335
-141.52142
-122.26094
-126.54537
-140.22503
-86.664319
-87.150139
-98.579691
-139.68289
-128.01497
-133.73967
-128.99796
-180.7505
-174.34673
-179.34361
-195.98972
-180.76512
-171.05994
-192.40327
-186.71977
-174.2565
-200.9064
-176.60861
-195.90954
-168.79332
-188.69118
-177.73519
-159.55317
-173.37751
-182.31665
-165.53314
-187.87114
-173.27182
-177.99128
-143.15868
-181.95926
-168.13244
-166.23691
-189.51746
-157.29813
-140.46252
-166.40323
-120.02847
-185.35716
-136.15477
-125.31398
-188.29727
-99.625331
-67.959148
0
-82.82553
-67.437206
-89.569166
-94.424775
-104.89692
0
-83.112873
0
-70.325781
-101.99695
-88.881946
-141.09713
-130.82533
-176.46414
-147.21072
-141.4714
-176.54932
-128.17519
-145.16971
-172.27007
-124.90293
-188.47892
-142.36842
-130.73725
-191.31582
-97.610034
-79.592959
0
0
0
-91.204625
-84.165638
-135.62301
-173.57889
-119.34584
-147.55449
-130.21363
-175.37602
-123.8693
0
0
0
0
-89.14303
0
0
0
-123.18724
-94.857777
-102.25399
-81.873195
-95.620823
0
0
0
0
0
0
0
0
0
0
0
0
0
0
0
0
-49.99813
0
-40.134955
-79.055407
-46.597278
-68.912404
0
0
0
0
0
0
0
-43.384462
0
0
-34.959303
-43.10697
-56.914276
0
-50.328279
-52.560404
-81.13601
-48.469252
-69.504044
-64.306473
-38.765067
0
0
-62.206571
0
0
-42.710538
-54.699591
-63.417565
-104.23221
-103.88672
-101.51544
-74.400264
-86.925773
-85.219683
0
0
0
0
0
-44.161127
0
-105.23481
-75.750105
-88.495096
-95.584153
-86.424911
-108.14271
-93.242122
-136.76819
-167.37109
-154.31235
-157.29515
-151.23368
-154.20639
-140.12202
-102.58015
-74.491351
-83.522528
-88.975032
-84.841761
-100.09767
-91.055733
-117.82178
-99.987161
-109.51855
-133.72174
-97.501245
-131.03262
-120.65592
-123.8715
-115.2189
-146.3659
-133.2277
-143.33347
-127.09723
-112.8988
0
0
0
0
0
0
-51.891543
0
0
0
0
0
-50.118783
0
0
-50.329369
-64.917353
-38.678494
-46.642151
-57.589144
0
0
0
0
0
0
0
0
0
-66.581386
-72.54505
-61.307956
-54.171802
0
-62.48207
0
0
0
0
0
0
0
0
-50.417886
-41.025001
-34.068001
-35.108326
-40.213423
0
0
0
0
0
0
0
0
0
0
0
0
0
0
0
0
-50.001274
-36.901015
-39.064885
-35.714889
0
-39.558601
0
0
0
0
0
0
0
0
0
0
0
0
0
0
-80.774533
-113.29621
-111.32706
-118.52471
-106.22629
-128.08754
-94.150257
-63.051668
-80.72283
-89.702922
-100.92647
-73.842721
-99.451983
-74.665214
-68.256815
-66.107213
-94.660185
-100.15478
-59.358676
-78.185671
-72.817041
-105.15753
-66.579035
-86.155329
-96.121753
-87.436258
-110.11871
-79.362329
-136.63855
-158.46199
-157.50422
-160.14
-143.43302
-153.86033
-143.611
-111.61371
-90.43239
-96.144209
-134.48594
-117.3179
-122.07282
-85.585331
-125.3209
-125.15644
-117.55913
-149.10495
-141.70102
-106.8136
-130.40604
-67.91145
-64.587364
-82.713615
-54.643511
-69.456109
-80.835037
-53.670914
-72.325504
-64.235979
-75.881983
0
0
-85.282982
-66.479526
-88.228659
-111.53928
-98.658861
-121.55912
-87.582254
-109.88288
-99.786127
-57.902997
0
-41.236227
0
0
-59.544468
-42.37489
-66.36965
-63.595981
-77.264242
-51.991953
-64.890449
-79.028984
-52.790883
-89.204025
-102.9443
-106.37168
-122.69266
-108.37936
-90.121754
-101.37075
-55.688109
-43.882327
0
0
0
-53.084843
-43.289943
0
0
0
0
0
0
0
0
-38.864109
-35.119313
0
0
0
0
0
0
0
0
0
0
0
0
0
0
0
0
0
0
0
0
0
0
0
0
0
0
0
0
0
0
0
0
0
0
0
0
0
0
0
0
0
0
0
0
0
0
0
0
0
0
0
0
0
0
0
0
-89.862548
0
0
-72.484489
0
0
-45.963379
0
0
0
0
0
0
0
0
0
0
0
0
-120.16542
-88.808309
-101.95194
-66.66241
-83.306424
-96.971949
0
0
0
0
0
0
0
0
0
-78.275955
0
0
0
0
-170.58819
-185.18803
-166.79209
-145.19946
-146.06692
-171.49039
-184.24392
-188.11253
-182.01153
-133.35906
-131.17053
-189.17609
-184.71652
-130.02256
-197.04124
-193.42079
-201.54829
-200.17289
-201.7064
-203.98177
-192.7919
-184.39345
-133.78267
-185.62427
-125.51293
-185.22362
-127.85254
-180.76971
-166.59968
-162.49319
-176.17084
-137.59404
-141.99642
-180.24112
-162.53452
-149.36728
-108.8968
-113.96529
-88.152464
-117.71158
-111.57827
-145.39801
-153.31383
-120.45581
-114.22359
-90.337124
-121.47216
-153.48192
-114.104
0
0
0
0
0
0
0
0
0
0
0
0
0
0
0
0
0
0
0
0
0
0
0
0
0
0
0
0
0
0
-116.40048
0
0
-121.37501
0
-91.793338
-112.26561
0
-110.22062
-77.234274
-126.91852
-93.923962
-171.23539
-177.61186
-201.28429
-196.42708
-179.46529
-181.48187
-188.68308
0
-96.796938
0
0
0
0
0
-159.01236
-115.52139
-185.82164
-123.21951
-163.63669
0
-177.27123
-147.95419
-146.26145
-172.02749
-133.17917
-162.3027
-127.21282
-158.44673
-131.24602
0
-106.33737
-110.23308
0
-105.0835
-141.63142
0
-57.491979
0
0
0
0
0
0
0
0
0
0
0
0
0
-63.133658
-67.806683
-59.664649
0
-59.92661
0
0
0
0
0
0
0
0
0
0
0
0
0
0
0
0
0
0
0
0
0
0
0
0
0
0
0
0
0
0
0
0
0
0
0
0
0
0
0
0
0
0
0
0
0
0
0
0
0
0
0
0
0
0
0
0
0
0
0
0
0
0
0
0
0
0
0
0
0
0
0
0
0
0
0
0
0
0
0
0
0
0
0
0
0
0
0
0
0
0
0
0
0
0
0
0
0
0
0
0
0
0
0
0
0
0
0
0
0
0
0
0
0
0
0
0
0
0
0
-207.1354
-196.29381
-205.65365
-207.99272
-185.09
-192.21079
-204.9362
0
0
0
0
0
-154.32217
-181.91528
-158.63244
-148.85459
-167.09334
-176.12233
-147.43403
0
0
0
0
0
0
0
-200.16034
-169.14367
-193.02614
-192.02243
-176.98976
-198.68723
-167.99043
0
-104.43078
-102.13533
-92.43131
0
0
-96.861898
0
0
0
0
0
0
0
-140.88951
-147.25416
-128.14319
-125.16373
-157.04316
-135.96655
-145.97125
-94.493372
0
-78.291022
-74.46547
0
0
-88.962401
0
0
0
0
0
0
0
-107.39258
-117.1079
-81.415221
-81.805802
-147.14491
-108.12863
-116.89243
0
-89.226754
0
0
0
0
-88.718793
0
0
0
0
0
0
0
0
0
0
0
0
0
0
0
-124.54548
0
0
0
-98.717418
0
-75.142153
-97.883
-83.989869
0
-78.833011
-63.414809
-76.738486
0
0
0
0
0
0
0
0
0
0
0
0
0
0
0
0
0
0
0
0
0
0
0
0
0
0
0
0
0
0
0
0
0
0
0
0
-62.95765
-71.202089
-57.376277
0
0
0
-111.39969
-155.70832
-114.40462
-103.50217
-153.13414
-106.9053
-145.22323
-108.21498
-154.54419
-116.75772
-98.263131
-134.18015
-86.751443
-139.80516
-76.951683
-109.22345
0
0
0
-114.458
0
0
0
0
0
0
0
0
-83.28007
-128.20789
0
0
-87.694111
-120.22633
0
0
0
0
0
0
0
0
0
0
0
0
0
0
0
0
0
0
0
0
0
0
-66.112659
-73.850355
-58.217938
-54.063011
-75.850373
-61.915971
-68.494358
0
0
0
0
0
0
0
-65.691924
-43.5988
-50.705473
-46.040586
-52.956897
-60.862434
-37.872178
0
-47.930714
0
0
-56.031606
0
0
0
0
0
0
0
0
0
0
-69.847183
0
0
0
-63.353332
0
0
0
0
0
0
0
0
0
0
0
0
0
0
0
0
0
0
0
0
0
0
0
0
0
0
0
0
0
0
0
0
0
0
0
0
0
0
0
0
0
0
0
0
0
0
0
0
0
0
0
0
0
0
0
0
0
0
0
0
0
0
0
0
0
0
0
0
0
0
0
0
0
0
0
0
0
0
0
0
0
0
0
0
0
0
0
0
0
0
0
0
0
0
0
0
0
0
0
-186.16048
-144.5203
-172.1951
-173.12621
-165.23688
-143.93612
-187.44085
-177.8579
-131.79552
-190.52951
-191.53925
-124.8365
-131.96788
-172.7082
-119.6563
-114.26031
-154.4507
-155.11461
0
-118.9488
0
-138.92794
0
0
0
0
0
0
-191.87088
-175.23602
-128.0252
-134.43619
-135.67829
-180.43751
-188.43711
-177.45299
0
0
0
0
0
-159.96459
-155.94389
-143.92713
0
-123.46811
-124.79328
0
-169.85244
0
0
0
0
0
0
0
0
0
0
0
0
0
0
0
0
0
0
0
0
0
0
0
0
0
0
0
0
-132.25369
-110.14268
-129.53754
-116.60067
-97.975333
-92.452249
-123.62068
-151.12532
-100.31557
-132.45938
-121.57107
-102.73923
-143.61206
0
-105.74958
-94.13478
-114.53286
-97.707612
0
-82.297538
0
0
0
0
0
0
0
0
-138.75385
-162.21395
-120.53638
-103.20103
-169.1923
0
-140.33865
-109.18955
0
0
0
-134.44526
0
0
-103.09095
-86.629631
0
-86.666322
-73.925364
0
-114.79702
0
0
0
0
0
0
0
0
0
0
0
0
0
0
0
0
0
0
0
0
0
0
0
0
0
0
0
0
0
0
0
0
0
0
0
0
0
0
0
0
0
0
0
0
0
0
0
0
0
-86.622029
-86.268605
-59.372852
0
-106.44479
-67.81654
-74.232836
0
-86.556929
0
0
0
0
0
0
0
0
0
0
0
0
0
0
0
0
0
-196.34411
-179.73338
-199.93848
-200.88152
-178.72899
-175.66005
-198.05225
-163.29903
-181.92057
-187.40317
-186.34996
-159.60753
-181.39552
-163.49712
-181.36601
-205.32242
-203.99019
-204.28163
-176.39561
-174.89851
-201.16565
-185.82564
-152.47937
-108.84395
-127.42899
-151.44572
-180.20001
-132.36236
-178.96806
-169.17547
-132.35874
-116.56642
-184.14467
-128.83306
-162.25312
-183.43359
-156.45075
-110.41867
-132.28253
-152.78063
-180.59345
-134.26764
-174.27483
-158.24057
-121.55232
-114.2198
-170.71283
-124.70216
-159.66244
0
-74.353626
-92.273157
-81.74816
0
0
0
-132.21169
-176.4056
-138.14804
-134.88094
-156.30178
-177.13492
-134.34109
-117.50458
-184.30014
-136.32141
-129.77843
-150.72117
-110.19485
-180.40703
-114.61833
-130.73923
-94.761602
-162.18362
0
0
0
0
0
0
0
0
0
-125.81313
-158.00201
0
-168.30617
-134.82367
0
0
0
0
0
0
0
0
0
0
0
0
0
0
0
0
0
0
0
0
0
0
0
-120.00841
-88.720547
-108.45124
-103.63715
-89.8258
-83.087704
-113.29549
-138.70947
-109.14842
-117.17327
-115.91154
-134.74395
-139.31207
-109.24566
-80.190724
-87.619214
-97.59126
-94.653713
-68.337816
-76.115018
-85.900146
-91.486685
-65.174016
0
-64.784995
-71.900477
-83.938476
-70.433816
-121.94524
-153.88499
-96.824595
-103.94949
-130.82091
-144.57503
-90.833269
-98.60746
-82.229429
-61.287017
-80.811435
-77.532025
-106.37978
-75.395185
-114.4123
-136.55081
-81.855955
-100.63545
-139.56587
-109.05921
-85.657279
0
0
0
0
0
0
0
0
0
0
0
0
0
0
-35.385233
-37.776397
0
0
-44.346702
0
0
0
0
0
0
0
0
0
0
0
0
0
0
0
0
-115.19507
-100.20824
-90.349585
-92.776647
-129.10972
-118.93132
-101.53283
0
-41.929457
-58.542462
-57.664242
0
0
0
-76.899176
-51.771455
-66.242911
-67.434023
-59.864681
-76.173978
-51.367069
-68.401468
-57.940255
0
0
-75.578699
0
0
0
0
0
0
0
0
0
-94.828049
-132.33648
-77.111615
0
-122.66806
-102.5292
0
0
0
0
0
0
0
0
0
0
0
0
0
0
0
0
0
0
0
0
0
0
0
0
0
0
0
0
0
0
0
0
0
0
0
0
0
0
0
0
0
0
0
0
0
0
0
0
0
0
0
0
0
0
0
0
0
0
0
0
0
0
0
0
0
0
0
0
0
0
0
0
0
0
0
0
0
0
0
0
0
0
0
0
0
0
0
0
0
0
0
0
0
0
0
0
0
0
0
0
0
0
0
0
0
0
0
-115.2271
-126.02171
-93.561992
-107.34324
-95.328757
-112.7082
-128.55924
0
0
0
0
0
0
0
0
0
0
0
0
0
0
0
0
0
0
0
0
0
0
0
0
0
0
0
0
0
0
0
0
0
0
0
0
0
0
0
0
0
0
0
0
0
0
0
0
0
0
0
0
0
0
0
0
0
0
0
0
0
0
0
0
0
0
0
0
0
0
0
0
0
0
0
0
0
0
0
0
0
0
0
0
0
0
0
0
0
0
0
0
0
0
0
0
0
0
0
0
0
0
0
0
0
0
0
0
0
0
0
0
0
0
0
0
0
0
0
0
0
0
0
0
0
0
0
0
0
0
0
0
0
0
0
0
0
0
0
0
0
0
0
0
0
0
0
0
0
0
0
0
0
0
0
0
0
0
0
0
0
0
0
0
0
0
0
0
0
0
0
0
0
0
0
0
0
0
0
0
0
0
0
0
0
0
0
0
0
0
0
0
0
0
0
0
0
0
0
0
0
0
0
0
0
0
0
0
0
0
0
0
0
0
0
0
0
0
0
0
0
0
0
0
0
0
0
0
0
0
0
0
0
0
0
0
0
0
0
0
0
0
0
0
0
0
0
0
0
0
0
0
0
0
0
0
0
0
0
0
0
0
0
0
0
0
0
0
0
0
0
0
0
0
0
0
0
0
0
0
0
0
0
0
0
0
0
0
0
0
0
0
0
0
0
0
0
0
0
0
0
0
0
0
0
0
0
0
0
0
0
0
0
0
0
0
0
0
0
0
0
0
0
0
0
0
0
0
0
0
0
0
0
0
0
0
0
0
0
0
0
0
0
0
0
0
0
0
0
0
0
0
0
0
0
0
0
0
0
0
0
0
0
0
0
0
0
0
0
0
0
0
0
0
0
0
0
0
0
0
0
0
0
0
0
0
0
0
0
0
0
0
0
0
0
0
0
0
0
0
0
0
0
0
0
0
0
0
0
0
0
0
0
0
0
0
0
0
0
0
0
0
0
0
0
0
0
0
0
0
0
0
0
0
0
0
0
0
0
0
0
0
0
0
0
0
0
0
0
0
0
0
0
0
0
0
0
0
0
0
0
0
0
0
0
0
0
0
0
0
0
0
0
0
0
0
0
0
0
0
0
0
0
0
0
0
0
0
0
0
0
0
0
0
0
0
0
0
0
0
0
0
0
0
0
0
0
0
0
0
0
0
0
0
0
0
0
0
0
0
0
0
0
0
0
0
0
0
0
0
0
0
0
0
0
0
0
0
0
0
0
0
0
0
0
0
0
0
0
0
0
0
0
0
0
0
0
0
0
0
0
0
0
0
0
0
0
0
0
0
0
0
0
0
0
0
0
0
0
0
0
0
0
0
0
0
0
0
0
0
0
0
0
0
0
0
0
0
0
0
0
0
0
0
0
0
0
0
0
0
0
0
0
0
0
0
0
0
0
0
0
0
0
0
0
0
0
0
0
0
0
0
0
0
0
0
0
0
0
0
0
0
0
0
0
0
0
0
0
0
0
0
0
0
0
0
0
0
0
0
0
0
0
0
0
0
0
0
0
0
0
0
0
0
0
0
0
0
0
0
0
0
0
0
0
0
0
0
0
0
0
0
0
0
0
0
0
0
0
0
0
0
0
0
0
0
0
0
0
0
0
0
0
0
0
0
0
0
0
0
0
0
0
0
0
0
0
0
0
0
0
0
0
0
0
0
0
0
0
0
0
0
0
0
0
0
0
0
0
0
0
0
0
0
0
0
0
0
0
0
0
0
0
0
0
0
0
0
0
0
0
0
0
0
0
0
0
0
0
0
0
0
0
0
0
0
0
0
0
0
0
0
0
0
0
0
0
0
0
0
0
0
0
0
0
0
0
0
0
0
0
0
0
0
0
0
0
0
0
0
0
0
0
0
0
0
0
0
0
0
0
0
0
0
0
0
0
0
0
0
0
0
0
0
0
0
0
0
0
0
0
0
0
0
0
0
0
0
0
0
0
0
0
0
0
0
0
0
0
0
0
0
0
0
0
0
0
0
0
0
0
0
0
0
0
0
0
0
0
0
0
0
0
0
0
0
0
0
0
0
0
0
0
0
0
0
0
0
0
0
0
0
0
0
0
0
0
0
0
0
0
0
0
0
0
0
0
0
0
0
0
0
0
0
0
0
0
0
0
0
0
0
0
0
0
0
0
0
0
0
0
0
0
0
0
0
0
0
0
0
0
0
0
0
0
0
0
0
0
0
0
0
0
0
0
0
0
0
0
0
0
0
0
0
0
0
0
0
0
0
0
0
0
0
0
0
0
0
0
0
0
0
0
0
0
0
0
0
0
0
0
0
0
0
0
0
0
0
0
0
0
0
0
0
0
0
0
0
0
0
0
0
0
0
0
0
0
0
0
0
0
0
0
0
0
0
0
0
0
0
0
0
0
0
0
0
0
0
0
0
0
0
0
0
0
0
0
0
0
0
0
0
0
0
0
0
0
0
0
0
0
0
0
0
0
0
0
0
0
0
0
0
0
0
0
0
0
0
0
0
0
0
0
0
0
0
0
0
0
0
0
0
0
0
0
0
0
0
0
0
0
0
0
0
0
0
0
0
0
0
0
0
0
0
0
0
0
0
0
0
0
0
0
0
0
0
0
0
0
0
0
0
0
0
0
0
0
0
0
0
0
0
0
0
0
0
0
0
0
0
0
0
0
0
0
0
0
0
0
0
0
0
0
0
0
0
0
0
0
0
0
0
0
0
0
0
0
0
0
0
0
0
0
)


6047
(
0
0
0
0
0
0
0
0
0
0
0
0
0
0
0
0
0
0
0
0
0
0
0
0
0
0
0
0
0
0
0
0
0
0
0
0
0
0
0
0
0
0
0
0
0
0
0
0
0
0
0
0
0
0
0
0
0
0
0
0
0
0
0
0
0
0
0
0
0
0
0
0
0
0
0
0
0
0
0
0
0
0
0
0
0
0
0
0
0
0
0
0
0
0
0
0
0
0
0
0
0
0
0
0
0
0
0
0
0
0
0
0
0
0
0
0
0
0
0
0
0
0
0
0
0
-145.72676
0
0
0
0
0
0
0
0
-156.22353
0
-73.256774
0
0
0
0
0
0
0
0
0
-119.24154
0
0
0
-73.602867
0
0
0
0
0
0
0
0
0
0
0
0
0
0
0
0
0
0
0
0
0
0
0
0
0
0
0
0
0
0
0
0
0
0
0
0
0
0
0
0
0
0
0
0
0
0
0
0
0
0
0
0
0
0
0
0
0
0
0
0
0
0
0
0
0
0
0
0
0
0
0
0
0
0
0
0
0
0
0
0
0
0
0
0
0
0
0
0
0
0
0
0
0
0
0
0
0
0
0
0
0
0
0
0
0
0
0
0
0
0
0
0
0
0
0
0
0
0
0
0
0
0
0
0
0
0
0
0
0
0
0
0
0
0
0
0
0
0
0
0
0
0
0
0
0
0
0
0
0
0
0
-160.58352
0
0
0
0
0
0
0
0
0
0
0
0
0
0
0
0
0
0
0
0
0
0
0
0
0
0
0
0
0
0
0
0
0
0
0
0
0
0
0
0
0
0
0
0
0
0
0
0
0
0
0
0
0
0
0
0
0
0
0
0
0
0
0
0
0
0
0
0
0
0
0
0
0
0
0
0
0
0
0
0
0
0
0
0
0
0
0
0
0
0
0
0
0
0
0
0
0
0
0
0
0
0
0
0
0
0
0
0
0
0
0
0
0
0
0
0
0
0
0
0
0
0
0
0
0
0
0
0
0
0
0
0
0
0
0
0
0
0
0
0
0
0
0
0
0
0
0
0
0
0
0
0
0
0
0
0
0
0
0
0
0
0
0
0
0
0
0
0
0
0
0
0
0
0
0
0
0
0
0
0
0
0
-128.08181
-122.8956
0
0
0
0
-84.946324
0
0
0
0
0
-162.32545
0
0
-142.36445
-156.09775
-139.16035
0
0
0
0
0
0
0
0
0
0
0
0
0
0
0
0
-77.822059
0
0
-56.506471
0
0
0
0
0
0
0
0
0
0
0
0
0
0
0
0
0
0
0
0
0
0
0
0
0
0
0
0
0
0
0
0
0
0
0
0
0
0
0
0
0
0
0
0
0
0
0
0
0
0
0
0
0
0
0
0
0
0
0
0
0
0
0
0
0
0
0
0
0
0
0
0
0
0
0
0
0
0
0
0
0
0
0
0
0
0
0
0
0
0
0
0
0
0
0
0
0
0
0
0
0
0
0
0
0
0
0
0
0
0
0
0
0
0
0
0
0
0
0
0
0
0
0
0
0
0
0
0
0
0
0
0
0
0
0
0
0
0
0
0
0
0
0
0
0
0
0
0
0
0
0
0
0
-156.95488
0
0
0
0
0
-143.26276
0
0
0
-148.17127
-60.256722
0
0
0
-131.84607
0
0
0
0
0
0
0
0
0
0
0
0
0
0
0
0
0
0
0
0
0
0
0
0
0
0
0
0
0
0
0
0
0
0
0
0
0
0
0
0
0
0
0
0
0
0
0
0
0
0
0
0
0
0
0
0
0
0
0
0
0
0
0
0
0
0
0
0
0
0
0
0
0
0
0
0
0
0
0
0
0
0
0
0
0
0
0
0
0
0
0
0
0
0
0
0
0
0
0
0
0
0
0
0
0
0
0
0
0
0
0
0
0
0
0
0
0
0
0
0
0
0
0
0
0
0
0
0
0
-98.882724
-99.838733
0
0
0
0
0
0
0
0
0
0
0
0
0
0
0
0
0
0
0
0
0
0
0
0
0
0
0
0
0
0
0
0
0
0
0
0
0
0
0
0
0
0
-116.72211
0
0
0
0
0
0
-150.54017
0
-127.51051
0
-129.50012
0
0
0
-124.6199
0
0
-171.00874
-164.5736
-161.40714
-143.02764
-171.52956
-162.33405
-138.69341
0
0
0
-147.97186
0
-142.90564
0
-138.93515
0
0
-118.55646
-145.44632
0
0
0
0
0
-117.99099
0
0
0
0
0
0
0
0
0
0
0
0
0
0
0
0
0
0
0
0
0
0
0
0
0
0
0
0
0
0
0
0
0
0
0
0
0
0
0
-89.746583
0
-100.06107
-65.220342
0
0
0
0
0
0
0
0
0
0
0
0
0
-48.613551
0
0
0
0
0
0
0
0
0
0
0
-96.774241
0
-57.400263
0
0
0
0
0
0
0
0
0
0
0
0
0
0
0
0
0
0
0
0
0
0
0
0
0
0
0
0
0
0
0
0
0
0
0
0
0
0
0
0
0
0
0
0
0
0
0
0
0
0
0
0
0
0
0
0
0
0
0
0
0
0
0
0
0
0
0
0
0
0
0
0
0
0
0
0
0
0
0
0
0
0
0
0
0
0
0
0
0
0
0
0
0
0
0
0
0
0
0
0
0
0
0
0
0
0
0
0
0
0
0
0
0
0
0
0
0
0
0
0
0
0
0
0
0
0
0
0
0
0
0
0
0
0
0
0
0
0
0
0
0
0
0
0
0
0
0
0
0
0
0
0
0
0
0
0
0
0
0
0
0
0
0
0
0
0
0
0
0
0
0
0
0
0
0
0
0
0
0
0
0
0
0
0
0
0
0
0
0
0
0
0
0
0
0
0
0
0
0
0
0
0
0
0
0
0
0
0
0
0
0
0
0
0
0
0
0
0
0
0
0
0
0
0
0
0
0
0
0
0
0
0
0
0
0
0
0
0
0
0
0
0
0
0
0
0
0
0
0
0
0
0
0
0
0
0
0
0
0
0
0
0
0
0
0
0
0
0
0
0
0
0
0
0
0
0
0
0
0
0
0
0
0
0
0
0
0
0
0
0
0
0
0
0
0
0
0
0
0
0
0
0
0
0
0
0
0
0
0
0
0
0
0
0
0
0
0
0
0
0
0
0
0
0
0
0
0
0
0
0
0
0
0
0
0
0
0
0
0
0
0
0
0
0
0
0
0
0
0
0
0
0
0
0
0
0
0
0
0
0
0
0
0
0
0
0
0
0
0
0
0
0
0
0
0
0
0
0
0
0
0
0
0
0
0
0
0
0
0
0
0
0
0
0
0
0
0
0
0
0
0
0
0
0
0
0
0
0
0
0
0
0
0
0
0
0
0
0
0
0
0
0
0
0
0
0
0
0
0
0
0
0
0
0
0
0
0
0
0
0
0
0
0
0
0
0
0
0
0
0
0
0
0
0
0
0
0
0
0
0
0
0
0
0
0
0
0
0
0
0
0
0
0
0
0
0
0
0
0
0
0
0
0
0
0
0
0
0
0
0
0
0
0
0
0
0
0
0
0
0
0
0
0
0
0
0
0
0
0
0
0
0
0
0
0
0
0
0
0
0
0
0
0
0
0
0
0
0
0
0
0
0
0
0
0
0
0
0
0
0
0
0
0
0
0
0
0
0
0
0
0
0
0
0
0
0
0
0
0
0
0
0
0
0
0
0
0
0
0
0
0
0
0
0
0
0
0
0
0
0
0
0
0
0
0
0
0
0
0
0
0
0
0
0
-113.99851
0
0
-143.76956
-114.25178
-166.62678
0
-150.90324
-81.606299
-75.780449
0
0
0
0
0
0
0
0
0
0
0
0
-132.99828
0
0
0
0
0
0
0
0
0
0
0
0
0
0
0
0
0
0
0
0
0
0
0
0
0
0
0
0
0
0
0
0
0
0
0
0
0
0
0
0
0
0
0
0
0
0
0
0
0
0
0
0
0
0
0
0
0
0
0
0
0
0
0
0
0
0
0
0
0
0
0
0
0
0
0
0
0
0
0
0
0
0
0
0
0
0
0
0
0
0
0
0
0
0
0
0
0
0
0
0
0
0
0
0
0
0
0
0
0
0
0
0
0
0
0
0
0
0
0
0
0
0
0
0
0
0
0
0
0
0
0
0
0
0
0
0
0
0
0
0
0
0
0
0
0
0
0
0
0
0
0
0
0
0
0
0
0
0
0
0
0
0
0
0
0
0
0
0
0
-37.9746
0
0
-55.427877
-53.510516
0
0
0
0
0
0
0
0
0
-70.94075
0
0
-62.356589
-61.638341
0
-69.949608
0
0
0
0
0
0
0
0
0
0
0
0
0
0
0
0
0
0
0
0
0
0
0
0
0
0
0
0
0
0
0
0
0
0
0
0
0
0
0
0
0
0
0
0
0
0
0
0
0
0
0
0
0
0
0
0
0
0
0
0
0
0
0
0
0
0
0
0
0
0
0
0
0
0
0
0
0
0
0
0
0
0
0
0
0
0
0
0
0
0
0
0
0
0
0
0
0
0
0
0
0
0
-121.49043
0
0
0
0
0
-73.461165
0
0
0
0
0
0
0
-134.56364
-145.65399
0
0
0
0
0
0
0
-66.399415
0
-46.065861
0
0
0
0
0
0
0
0
0
0
0
0
0
0
0
0
0
0
0
0
0
0
0
0
0
0
0
0
0
0
0
0
0
0
0
0
0
0
0
0
0
0
0
0
0
0
0
0
0
0
0
0
0
0
0
0
0
0
0
-147.99991
-129.84691
-156.89135
-148.69941
-141.52394
-137.52318
-160.89829
0
0
0
0
0
0
0
0
0
0
0
0
0
0
0
0
0
0
0
0
0
0
0
0
0
0
0
0
0
0
0
0
0
0
0
0
0
0
0
0
0
0
-89.103
-80.895417
-63.363547
-85.249225
-69.854193
-85.163784
-91.780934
0
0
0
0
0
0
0
0
0
0
0
0
0
0
0
0
0
0
0
0
0
-72.712877
-72.600457
-79.379445
0
-62.417016
-68.931462
-83.1711
0
0
0
0
0
0
0
0
0
0
0
0
0
0
0
0
0
0
0
0
0
0
0
0
0
0
0
0
0
0
0
0
0
0
0
0
0
0
0
0
0
0
0
0
0
0
0
0
0
0
0
0
0
0
0
0
0
0
0
0
0
0
0
0
0
0
0
0
0
0
0
0
0
0
0
0
0
0
0
0
0
0
0
0
0
0
0
0
0
0
0
0
0
0
0
0
0
0
0
0
0
0
0
0
0
0
0
0
0
0
0
0
0
0
0
0
0
0
0
0
0
0
0
0
0
0
0
0
0
0
0
0
0
0
0
0
0
0
0
0
0
0
0
0
0
0
0
0
0
0
0
0
0
0
0
0
0
0
0
0
0
0
0
0
0
0
0
0
0
0
0
0
0
0
0
0
0
0
-174.38818
-175.70703
-169.34343
-164.47391
-178.73491
-174.70126
-176.74012
0
0
0
0
0
0
0
0
0
0
0
0
0
0
0
0
0
0
0
0
0
0
0
0
0
0
0
0
0
0
0
0
0
0
0
0
0
0
0
0
0
0
0
0
0
0
0
0
0
0
0
0
0
0
0
0
0
0
0
0
0
0
0
0
0
0
0
0
0
0
0
0
0
0
0
0
0
0
0
0
0
0
0
0
0
0
0
0
0
0
0
0
0
0
0
0
0
0
0
0
0
0
0
0
0
0
0
0
0
0
0
0
0
0
0
0
0
0
0
0
0
0
0
0
0
0
0
0
0
0
0
0
0
0
0
0
0
0
0
0
0
0
0
0
0
0
0
0
0
0
0
0
0
0
0
0
0
0
0
0
0
0
0
0
0
0
0
0
0
0
0
0
0
0
0
0
0
0
0
0
0
0
0
0
0
0
0
0
0
0
0
0
0
0
-34.128762
0
-45.937869
0
-49.639466
0
0
-69.693031
-95.160171
-127.50773
-100.99541
-93.213575
-71.268293
-100.89975
-67.116987
-86.575607
-125.47526
-98.268531
-90.139471
-63.989111
-100.1247
0
0
0
0
0
0
0
-45.603874
-74.257808
0
0
0
0
-75.945852
-48.3453
0
-74.29647
0
0
0
-76.052514
0
0
0
0
0
0
0
0
0
-87.784433
0
0
0
0
0
0
0
0
0
0
0
0
0
0
0
0
0
0
0
0
-89.574692
0
0
0
0
0
0
0
0
0
0
0
0
0
0
0
0
0
0
-124.70896
-158.08777
-165.2572
-117.62259
-122.2824
-120.77266
-160.85523
-68.598632
0
-55.903568
0
-58.690991
0