/*--------------------------------*- C++ -*----------------------------------*\
  =========                 |
  \\      /  F ield         | OpenFOAM: The Open Source CFD Toolbox
   \\    /   O peration     | Website:  https://openfoam.org
    \\  /    A nd           | Version:  8
     \\/     M anipulation  |
\*---------------------------------------------------------------------------*/
/*   Windows 32 and 64 bit porting by blueCAPE: http://www.bluecape.com.pt   *\
|  Based on Windows porting (2.0.x v4) by Symscape: http://www.symscape.com   |
\*---------------------------------------------------------------------------*/
FoamFile
{
    version     2.0;
    format      ascii;
    class       polyBoundaryMesh;
    location    "constant/air/polyMesh";
    object      boundary;
}
// * * * * * * * * * * * * * * * * * * * * * * * * * * * * * * * * * * * * * //

9
(
    left
    {
        type            patch;
        nFaces          0;
        startFace       6660;
    }
    right
    {
        type            patch;
        nFaces          38;
        startFace       6660;
    }
    back
    {
        type            patch;
        nFaces          0;
        startFace       6698;
    }
    front
    {
        type            patch;
        nFaces          0;
        startFace       6698;
    }
    bottom
    {
        type            wall;
        inGroups        List<word> 1(wall);
        nFaces          167;
        startFace       6698;
    }
    top
    {
        type            patch;
        nFaces          0;
        startFace       6865;
    }
    tower
    {
        type            mappedWall;
        inGroups        List<word> 
2
(
wall
mappedPatch
)
;
        nFaces          410;
        startFace       6865;
        sampleMode      nearestPatchFace;
        sampleRegion    tower;
        samplePatch     buildings_to_air;
    }
    procBoundary13to12
    {
        type            processor;
        inGroups        List<word> 1(processor);
        nFaces          160;
        startFace       7275;
        matchTolerance  0.0001;
        myProcNo        13;
        neighbProcNo    12;
    }
    procBoundary13to14
    {
        type            processor;
        inGroups        List<word> 1(processor);
        nFaces          155;
        startFace       7435;
        matchTolerance  0.0001;
        myProcNo        13;
        neighbProcNo    14;
    }
)

// ************************************************************************* //
