/*--------------------------------*- C++ -*----------------------------------*\
  =========                 |
  \\      /  F ield         | OpenFOAM: The Open Source CFD Toolbox
   \\    /   O peration     | Website:  https://openfoam.org
    \\  /    A nd           | Version:  8
     \\/     M anipulation  |
\*---------------------------------------------------------------------------*/
/*   Windows 32 and 64 bit porting by blueCAPE: http://www.bluecape.com.pt   *\
|  Based on Windows porting (2.0.x v4) by Symscape: http://www.symscape.com   |
\*---------------------------------------------------------------------------*/
FoamFile
{
    version     2.0;
    format      ascii;
    class       polyBoundaryMesh;
    location    "constant/tower/polyMesh";
    object      boundary;
}
// * * * * * * * * * * * * * * * * * * * * * * * * * * * * * * * * * * * * * //

8
(
    buildings_to_air
    {
        type            mappedWall;
        inGroups        List<word> 
2
(
wall
mappedPatch
)
;
        nFaces          1498;
        startFace       35442;
        sampleMode      nearestPatchFace;
        sampleRegion    air;
        samplePatch     tower;
    }
    interior
    {
        type            patch;
        nFaces          1498;
        startFace       36940;
    }
    procBoundary7to5
    {
        type            processor;
        inGroups        List<word> 1(processor);
        nFaces          100;
        startFace       38438;
        matchTolerance  0.0001;
        myProcNo        7;
        neighbProcNo    5;
    }
    procBoundary7to8
    {
        type            processor;
        inGroups        List<word> 1(processor);
        nFaces          180;
        startFace       38538;
        matchTolerance  0.0001;
        myProcNo        7;
        neighbProcNo    8;
    }
    procBoundary7to9
    {
        type            processor;
        inGroups        List<word> 1(processor);
        nFaces          380;
        startFace       38718;
        matchTolerance  0.0001;
        myProcNo        7;
        neighbProcNo    9;
    }
    procBoundary7to10
    {
        type            processor;
        inGroups        List<word> 1(processor);
        nFaces          240;
        startFace       39098;
        matchTolerance  0.0001;
        myProcNo        7;
        neighbProcNo    10;
    }
    procBoundary7to12
    {
        type            processor;
        inGroups        List<word> 1(processor);
        nFaces          50;
        startFace       39338;
        matchTolerance  0.0001;
        myProcNo        7;
        neighbProcNo    12;
    }
    procBoundary7to13
    {
        type            processor;
        inGroups        List<word> 1(processor);
        nFaces          70;
        startFace       39388;
        matchTolerance  0.0001;
        myProcNo        7;
        neighbProcNo    13;
    }
)

// ************************************************************************* //
