/*--------------------------------*- C++ -*----------------------------------*\
  =========                 |
  \\      /  F ield         | OpenFOAM: The Open Source CFD Toolbox
   \\    /   O peration     | Website:  https://openfoam.org
    \\  /    A nd           | Version:  8
     \\/     M anipulation  |
\*---------------------------------------------------------------------------*/
/*   Windows 32 and 64 bit porting by blueCAPE: http://www.bluecape.com.pt   *\
|  Based on Windows porting (2.0.x v4) by Symscape: http://www.symscape.com   |
\*---------------------------------------------------------------------------*/
FoamFile
{
    version     2.0;
    format      ascii;
    class       scalarListList;
    location    "constant/vegetation";
    object      F;
}
// * * * * * * * * * * * * * * * * * * * * * * * * * * * * * * * * * * * * * //


246
(

1429
(
0.00078925793
0.0041940823
0.0035179611
0.0045537225
0.0016599412
0.0064261532
0.0075930192
0.0018151766
2.1866555e-06
8.4020294e-08
4.541693e-06
1.0330968e-07
7.5996898e-06
4.8663054e-06
9.5340083e-06
4.2660262e-06
8.2714177e-06
2.4563668e-06
9.0310479e-06
5.7948664e-06
4.075292e-06
6.7784607e-07
1.0617524e-07
7.4514875e-07
1.0522372e-06
1.1482666e-07
9.2171713e-07
1.011451e-06
1.3392204e-06
1.7390091e-06
1.4432543e-06
8.9759851e-07
5.4486999e-07
6.2131231e-07
6.2513856e-08
4.6706633e-07
5.177795e-06
4.3280072e-06
3.2366928e-06
4.0066473e-06
2.3864327e-06
1.8347992e-06
2.2056396e-06
3.025402e-06
2.5626041e-06
6.785176e-06
1.93282e-06
1.6073912e-06
1.1276927e-06
5.8563105e-06
1.4920312e-06
1.0007687e-06
2.6965576e-06
5.9758806e-07
1.0851588e-05
3.1018647e-06
3.787886e-06
4.8863699e-06
3.7003638e-06
4.1043433e-06
2.0192162e-06
2.8729306e-06
2.4196584e-06
1.0196945e-06
1.123151e-06
1.1325211e-06
1.2324678e-06
1.3511578e-06
1.243076e-06
1.756371e-06
1.6430077e-06
1.6590123e-06
1.4565642e-06
1.5444752e-06
1.5591843e-06
9.0481872e-07
7.8146818e-07
7.8817175e-07
6.6353526e-07
5.5103581e-07
6.7009148e-07
7.5606633e-06
4.8498581e-06
5.676932e-06
4.665983e-06
4.883802e-06
5.3150683e-06
3.644842e-06
3.4694396e-06
3.9059624e-06
4.5134686e-06
3.7231455e-06
4.1933045e-06
1.8524199e-06
1.9378836e-06
1.9502175e-06
2.1899042e-06
2.0578816e-06
2.0568211e-06
3.4082949e-06
2.8428675e-06
3.1981483e-06
2.8830814e-06
2.6929158e-06
3.0221239e-06
5.039035e-06
3.1649724e-06
3.5973842e-06
8.0621025e-06
9.9557523e-06
8.9156823e-06
6.4305019e-06
6.9667738e-06
7.7186094e-06
1.8284818e-06
2.2185692e-06
2.1083319e-06
1.7196876e-06
1.8556563e-06
1.9885101e-06
1.2519889e-06
1.3018237e-06
1.451165e-06
1.3734434e-06
1.7277236e-06
1.5861435e-06
8.7019025e-07
1.160312e-06
9.9795721e-07
7.3176027e-07
6.217028e-07
8.4046593e-07
3.3256818e-06
3.1184816e-06
3.3514595e-06
3.5360313e-06
3.4508571e-06
3.5384683e-06
4.4045179e-06
4.2320113e-06
4.1416832e-06
2.1243399e-06
2.3003449e-06
2.1920645e-06
2.6892437e-06
2.8822637e-06
2.4586013e-06
2.2666594e-06
2.5567995e-06
2.6437552e-06
7.7979869e-08
3.8035727e-06
5.3942488e-08
4.2576834e-07
1.9086859e-06
1.3432982e-06
1.0359052e-06
4.6908991e-08
1.8460992e-07
2.1305756e-07
4.3173816e-07
3.0606564e-07
3.1329158e-07
2.3893117e-06
2.734678e-06
3.7455101e-06
2.3495342e-07
7.2543894e-08
2.1909668e-07
1.9109005e-06
1.9462108e-06
1.6990571e-06
2.5318109e-07
9.071025e-08
2.7322636e-07
5.0568603e-07
1.1884176e-07
4.0403162e-07
4.4563661e-06
3.8213741e-06
4.0108223e-06
2.1370581e-06
3.2130106e-06
2.8158108e-06
3.4451268e-06
3.5751657e-06
3.016374e-06
6.7630717e-08
1.9490746e-07
2.0589653e-07
1.629901e-06
1.1889309e-06
1.445249e-06
9.8091487e-08
3.1944469e-07
2.9508939e-07
7.587632e-07
9.3022659e-07
6.6919557e-07
1.2231044e-07
3.4698484e-07
3.7714117e-07
4.656635e-06
4.5017629e-06
4.2283912e-06
2.7180768e-06
2.1852627e-06
2.4182035e-06
3.8763231e-06
3.6411987e-06
3.4590093e-06
2.9705229e-06
2.8605451e-06
2.6434934e-06
3.6663894e-06
3.0688799e-06
3.2682894e-06
3.9931538e-07
5.1707233e-07
3.7068039e-07
5.5478545e-07
3.3140437e-07
3.5039531e-07
1.9070991e-06
1.6451201e-06
1.6620828e-06
1.1455885e-06
1.3892558e-06
1.4003426e-06
4.347392e-07
7.3250974e-07
4.6894073e-07
7.7475554e-07
5.3825681e-07
5.0052412e-07
8.9654209e-07
5.8717204e-07
6.3786905e-07
3.727047e-06
3.5359348e-06
3.9032987e-06
2.1425483e-06
2.3767652e-06
2.3713428e-06
2.5918159e-06
2.8074159e-06
2.5930782e-06
3.5807202e-06
3.4070176e-06
3.4011529e-06
3.0135222e-06
3.2227739e-06
3.2116522e-06
1.8739606e-05
9.518522e-07
1.0219706e-06
2.1034544e-05
1.0385872e-06
9.0655282e-06
1.0681636e-06
7.7990109e-06
1.1522963e-05
2.7514229e-05
2.9495982e-05
1.5150073e-05
1.0616146e-05
1.2903654e-05
8.2846949e-06
5.5558176e-06
5.8996018e-06
2.7613177e-05
1.6376062e-05
1.7595399e-05
1.5376332e-05
2.8596978e-06
9.8066304e-07
2.9466544e-06
4.5675069e-06
1.0259131e-06
3.6166506e-06
1.3961123e-05
1.079063e-05
1.3092928e-05
1.009372e-06
3.1463122e-06
3.0377641e-06
6.6155923e-06
8.4500377e-06
6.068259e-06
1.0854614e-06
3.2883751e-06
3.4646927e-06
2.3278364e-05
1.973399e-05
2.1833282e-05
2.5440848e-05
2.5813409e-05
2.3856585e-05
3.1380356e-05
2.7702578e-05
2.9494768e-05
4.8543708e-06
0.0065258193
3.6435842e-05
3.4828823e-05
4.3176912e-05
3.4435454e-05
3.2686017e-05
1.4096116e-05
2.1937545e-05
3.3421088e-05
4.1100536e-05
3.4979937e-05
3.530197e-05
2.5209366e-05
2.5864544e-05
6.1049999e-05
3.8607016e-05
3.7240754e-05
2.738621e-05
2.6701913e-05
3.6768748e-05
3.0877914e-05
3.2888322e-05
2.7047277e-05
2.6488534e-05
2.7111181e-05
3.0551724e-05
2.7865103e-05
2.9603283e-05
3.1479527e-05
2.8665508e-05
3.1678138e-05
3.3973908e-05
3.2325463e-05
3.2416344e-05
3.4493941e-05
3.7384839e-05
3.8431433e-05
3.6795152e-05
2.9550616e-05
3.7956658e-05
3.4302275e-05
3.5686962e-05
3.9438569e-05
3.8008969e-05
3.6904099e-05
3.315835e-05
3.2767666e-05
3.118135e-05
3.4406102e-05
3.2855987e-05
3.559279e-05
3.2917624e-05
3.1183708e-05
0.0074603672
0.052147876
0.013496703
0.030797818
0.068678152
0.018270071
0.063520934
0.00061240736
0.00056472618
0.00087738952
0.00012475064
0.00089382022
2.0108326e-05
0.00047105433
0.001010261
0.00051083158
0.0003738687
0.00066478335
0.00093850914
0.0016144362
0.0028514492
0.00077795046
9.8239894e-05
9.9747578e-05
8.8252542e-05
9.8565309e-05
0.00080286131
6.0943886e-05
0.00041340264
0.00014908327
4.5726535e-05
0.0003255286
8.2256228e-05
5.6228554e-05
0.00011663384
7.0720137e-06
5.3162978e-05
0.0011391213
0.0006758871
0.00075931783
0.00030170308
0.00013378527
9.796701e-05
9.6502834e-05
9.1896524e-05
9.3024616e-05
0.00014803641
0.00019806463
0.00026145245
0.00021619877
0.00010292139
0.00062467089
0.00011264922
0.00060594391
0.00010907318
0.00011319982
0.00014113731
0.00010545013
9.9293478e-05
0.0010971532
0.00028393592
0.00023552563
0.00015857999
0.00085022254
0.00021655894
9.9463996e-05
0.00010000161
9.2922053e-05
9.6327828e-05
7.487205e-05
6.614121e-05
0.00013510251
0.00012138134
0.00012310893
0.00011034367
0.00010281768
0.00011290388
9.4589493e-05
9.2857386e-05
0.00014872031
0.00016371586
0.00016350459
0.00018049684
0.00019543153
0.00017914929
0.00026210066
0.00025331539
0.00024865979
0.00021225805
0.00023507032
0.0002300062
0.0013656014
0.0007051025
0.0011511226
0.0013827336
0.00092390488
0.0013193384
0.00086488912
0.0010149304
0.0011849627
7.6211788e-05
3.8978481e-05
4.9329793e-05
0.0001076686
0.00014017368
0.00014579714
0.00011085946
0.00015006779
0.00014881614
0.00011129814
0.00013988383
0.00014478555
0.00011270028
0.00014962148
0.00014766736
0.00012677486
0.00015822817
0.00012825762
0.00010246819
0.00013378996
0.00011692604
0.00011455489
0.00010084989
0.00013011116
0.00031076038
0.00027757979
0.00033449685
0.00025608672
0.00027599814
0.00027260079
0.00017666228
0.00017911947
0.00020288168
0.00019614044
0.00025289548
0.00022616385
0.00013009425
0.0012300533
0.0005535448
1.5596066e-05
0.00047631047
0.0010346147
5.1940051e-06
4.5304619e-05
0.00027696525
0.00061668148
9.6487505e-05
0.00043910095
6.5686231e-05
0.002114759
0.00089710287
0.0018320007
0.00084190804
2.313148e-05
3.3585389e-05
0.00034590853
0.0001332197
0.0011698419
4.6528842e-05
1.2223013e-05
3.6731395e-05
0.00037869408
0.0004120401
0.00010614223
0.00031770676
5.9811363e-05
2.6204194e-05
7.7746577e-05
0.00052591332
0.00092655459
0.00059886728
0.00112572
0.0015723622
0.0017390803
0.0006656865
0.0018429029
0.0011715141
9.5754515e-06
2.3704549e-05
2.9405768e-05
0.00033331251
8.1213519e-05
0.00017906757
0.0002387519
3.4479809e-05
0.00013483179
0.0001020159
0.00066666757
0.00094862839
0.00095557815
0.00083498862
0.00086154607
0.00034339516
0.00038511323
0.00032297711
8.816563e-05
0.00013263301
0.00012087627
7.7429437e-05
8.1882612e-05
0.00010666934
7.743038e-05
8.3246833e-05
6.1184172e-05
0.00063978331
0.00071370851
0.00050621294
0.00048334053
0.00028933108
0.00038116242
0.0009437927
0.00071627216
0.00083650926
0.00010001983
0.00019449765
0.00012949693
0.00024958302
0.00022181718
0.00016902452
0.00052079312
0.00059561262
0.0005253406
0.0007151298
0.00065221239
0.00069993358
0.00035508018
0.0017038328
0.00017684854
0.00018966886
0.0002850897
0.0001607424
0.0002407886
0.0039606044
1.6143813e-06
8.3588824e-05
3.5642861e-05
1.6905335e-06
1.9789402e-06
5.1040938e-06
1.7602579e-07
9.4928321e-06
2.4521082e-07
5.7052428e-06
1.2035464e-05
1.3291265e-05
1.3888186e-05
1.922479e-06
1.3876514e-05
1.7502423e-05
2.001843e-06
1.673284e-05
1.4161058e-06
2.3362398e-07
1.6335009e-06
2.4904831e-06
2.5720565e-07
2.0559482e-06
5.8526143e-05
2.2184231e-05
1.8705855e-05
6.3578913e-05
1.0849583e-05
6.646574e-06
7.7932269e-06
1.6462214e-05
1.3745491e-05
1.4356605e-05
1.6354117e-05
4.2060881e-06
3.1712791e-06
2.3064762e-06
4.8634084e-06
1.5386598e-06
4.635106e-06
3.1292469e-05
4.4800345e-06
4.4559979e-06
3.9060221e-06
5.0941778e-06
1.7669837e-06
5.3264726e-06
5.3019696e-07
1.9304014e-07
5.8120388e-07
8.8493596e-06
1.2011649e-06
1.9655099e-06
2.7640465e-07
6.9370312e-06
9.3980274e-07
4.6912776e-06
2.6786054e-05
3.8357166e-06
2.0613685e-05
2.7510475e-06
2.4941613e-05
3.3342403e-06
1.844022e-06
5.8392881e-06
5.5666487e-06
2.1218668e-07
7.0254816e-07
6.3802345e-07
1.2798787e-05
1.7992796e-06
1.618619e-05
2.157539e-06
1.1640431e-05
1.5548427e-06
2.0579437e-06
6.1768225e-06
6.5805294e-06
2.7911433e-07
7.7684725e-07
8.603526e-07
4.980221e-06
5.4828709e-06
8.4407265e-06
1.2652161e-05
8.0441201e-06
4.2853821e-06
3.6387034e-06
3.7490732e-06
2.0353342e-05
2.6000737e-06
3.0822942e-06
3.1692569e-06
8.8388597e-06
1.4428764e-05
9.2325499e-06
1.4804982e-05
9.9742441e-06
9.5449489e-06
9.0964769e-07
1.5549149e-06
9.966237e-07
1.6701579e-06
1.1824228e-06
1.0811138e-06
1.5973894e-05
1.063037e-05
1.1333457e-05
2.0394252e-06
1.3130652e-06
1.4535296e-06
4.7937313e-06
5.1934996e-06
5.2803134e-06
5.6369228e-06
5.7438723e-06
6.1081235e-05
1.1152666e-06
4.5049655e-07
5.381415e-05
6.2704771e-07
1.0525964e-06
6.8570407e-05
1.3901883e-06
1.1434973e-05
9.1753738e-06
1.3182138e-06
1.0866907e-05
3.493995e-06
4.5776999e-06
4.2096559e-06
8.2695262e-07
6.6329637e-06
8.6737801e-06
8.8002788e-07
6.2290785e-06
7.8008179e-05
6.8279885e-05
4.2687705e-05
4.7734538e-05
7.582112e-05
5.3042888e-05
4.5443894e-05
3.7640498e-05
3.2345478e-05
5.7860076e-05
8.1880434e-05
9.3791299e-05
8.7131987e-05
9.3055099e-05
0.00010380312
0.00012908487
0.00010636613
0.0001184301
0.00013094288
9.6645019e-05
0.00011496749
5.4820237e-06
7.4467765e-06
3.3603692e-06
1.1805311e-06
3.5568728e-06
1.8187057e-06
7.1990112e-07
2.1209433e-06
3.1715533e-06
9.9254145e-07
2.9886986e-06
1.4637646e-06
4.1880415e-06
4.409577e-06
1.2482721e-06
3.9713724e-06
3.7608153e-06
3.0097528e-06
4.8977585e-06
3.5093767e-06
7.7552601e-07
2.4751941e-06
2.3085768e-06
6.3062658e-06
9.350867e-07
2.6408262e-06
2.8111109e-06
1.445933e-06
2.4751583e-06
1.2061181e-05
7.2691815e-06
7.6534083e-06
5.8344135e-06
9.7373495e-06
6.1753126e-06
1.0272306e-05
6.893829e-06
6.5286385e-06
5.4410838e-06
4.1949993e-06
3.8755148e-06
1.1934971e-05
6.9590013e-06
1.0063721e-05
8.5094097e-06
5.5049945e-06
8.0814006e-06
5.1783415e-06
7.4790713e-06
4.4808067e-06
4.8106637e-06
4.8573457e-05
0.00011266732
8.2708056e-05
0.0021655499
0.0053744144
0.0058334302
0.0059875729
0.002448862
0.0073096114
0.0060587664
1.4994341e-05
9.8391288e-06
1.9521444e-06
2.5630658e-06
3.2798836e-06
2.7530556e-06
1.7363638e-06
1.0595096e-06
1.2796885e-06
1.23713e-07
9.218041e-07
4.3975694e-06
3.4460048e-06
4.0851436e-06
1.3512605e-05
3.6887757e-06
3.104734e-06
2.2055049e-06
1.1758648e-05
2.8920731e-06
1.9620239e-06
5.5026517e-06
1.1779148e-06
3.8363535e-06
4.5284498e-06
1.9424505e-06
2.1621934e-06
2.1522348e-06
2.3659877e-06
2.5535963e-06
2.3561028e-06
3.2740617e-06
3.1112523e-06
3.1042275e-06
2.7442567e-06
2.9357192e-06
2.9278175e-06
1.7273206e-06
1.5147418e-06
1.5074992e-06
1.28838e-06
1.0571113e-06
1.2837451e-06
3.4394529e-06
3.6235324e-06
3.6060196e-06
4.0134837e-06
3.8300679e-06
3.7866527e-06
3.5044605e-06
4.2886156e-06
4.0947466e-06
3.3091324e-06
3.6339764e-06
3.8780213e-06
2.4419713e-06
2.5834183e-06
2.871165e-06
2.6708838e-06
3.3956217e-06
3.1285969e-06
1.7096575e-06
2.3083676e-06
1.9899473e-06
1.4402415e-06
1.2429896e-06
1.6788134e-06
4.0169826e-06
4.4260573e-06
4.1942765e-06
4.2647814e-06
1.6092664e-07
7.7334765e-06
1.0538642e-07
8.2892314e-07
9.0372041e-08
3.6013268e-07
4.097875e-07
8.2918094e-07
5.9649136e-07
6.0224563e-07
4.3586252e-06
5.0122736e-06
6.7935396e-06
4.8467916e-07
1.4756096e-07
4.4546662e-07
1.3565559e-07
3.8538119e-07
4.127681e-07
8.2316053e-07
1.0498858e-06
7.5315686e-07
1.1109417e-06
6.5471187e-07
7.019637e-07
0.0066824816
0.022949261
0.016434671
0.073582014
0.033530219
0.12360529
0.0012758149
0.00041021607
0.00033542038
0.0089197285
0.00092923282
0.00077318085
0.0036419943
0.0014620708
0.0025396896
0.010708303
0.0013444366
0.00027914321
0.00060558821
0.0014479173
0.0011874056
0.001042252
0.00084484166
0.0011741338
0.0012224361
0.011532477
0.0038852442
0.00082311146
0.022243203
0.00036613829
0.00062100536
0.00019651142
0.00052955736
0.074012946
1.1029162e-05
2.4089752e-05
0.00015508219
1.8082645e-05
8.752927e-06
1.4373407e-05
3.9270624e-05
3.2488709e-05
5.291135e-05
9.8655458e-05
0.00025076383
0.00016275169
3.7922313e-05
5.5505639e-05
6.3048425e-05
0.00011798486
9.6356032e-05
0.00041773842
0.00018881437
0.00025267009
0.00038091808
0.00040604882
0.00017093997
0.00021146435
0.00027775718
0.00022864764
0.00029127767
0.00035694519
0.0002783327
0.00016674414
3.3472086e-05
4.8141572e-05
6.2830364e-05
5.4156479e-05
7.1392606e-05
0.00016115476
0.0001174959
0.0001336232
4.812899e-05
0.00011827645
0.00029406689
0.00028107234
0.00016128813
0.00014829465
0.00017596534
0.00018449895
4.7429863e-06
6.1530541e-06
0.00021334106
0.00017996926
7.9148326e-05
0.00027713226
0.00015907775
0.00022486134
0.00015813831
5.9704678e-05
7.4776307e-05
0.00022696469
7.0162534e-05
0.00061005929
0.00025585807
3.1061717e-05
2.3619412e-06
1.5690808e-05
4.0055133e-05
1.506248e-05
9.8262955e-05
0.00028482384
0.00018139721
0.00028253219
0.00056793266
2.1338574e-05
0.00053836982
0.00014250652
4.9625194e-05
5.6662648e-05
8.6077002e-05
0.00016965858
0.00010097187
1.4083764e-05
3.7110902e-06
1.8257331e-05
8.1200128e-06
0.00020158794
4.9333658e-05
0.00027721568
0.00017289714
0.00013961925
5.6699616e-05
0.00021528889
0.00017250659
0.00015843636
0.00015338597
9.2156847e-05
3.5610263e-05
0.00010686437
1.8138456e-05
4.5752445e-05
0.0002566171
0.00015147583
0.00020019041
0.00027407672
0.00021690524
0.00011529699
4.290794e-05
0.00032313954
0.00028059636
0.00060261083
0.00017008693
0.00019526536
0.0001853852
0.00011228259
2.3048484e-05
2.4437046e-05
2.9428892e-06
7.029814e-06
1.9470443e-05
1.1559633e-05
2.9819223e-05
5.2591949e-05
1.0930009e-05
4.5096581e-05
7.073018e-05
7.355535e-05
0.00028069879
0.00014487217
0.00016158103
0.00039834249
0.00018911821
0.00022264741
0.00044245667
0.00019886942
3.0872513e-05
6.5123213e-05
0.00043407555
0.00032471693
0.00010680063
0.00021561125
4.3061017e-05
4.3475381e-05
4.8891822e-05
6.4788726e-05
7.4378066e-05
7.1818662e-05
0.00020777909
0.000138303
8.2490356e-05
0.00011964897
0.00063376298
0.00041489676
0.00022961506
0.00020838673
0.00031544562
0.00022951156
0.00052610491
0.00040112036
0.00063118421
0.00037598737
0.00020507405
0.00015456934
0.00019377302
0.00016567519
0.00035622588
0.00030392051
0.00017801385
0.00024598313
0.00029860997
0.00021063465
0.00048687363
0.00033066282
0.00020652758
0.0002628404
0.00015734278
0.00022734786
3.7820854e-05
4.2699703e-05
4.3679299e-05
6.0673016e-05
6.725066e-05
0.00013987472
0.00022399107
4.2968073e-05
9.0995375e-05
0.00012070624
0.00013251188
0.00017917271
6.5354272e-05
0.00010468675
7.6758258e-05
2.8101487e-05
2.2454041e-05
3.8905534e-05
5.9858329e-05
9.4506954e-05
8.1286267e-05
0.000299172
0.00025544701
0.00019997556
0.00017633629
0.00018410086
0.00013506919
0.00012880625
0.00014351827
0.00014770904
0.00018312838
0.0040525822
0.00930629
0.001332389
0.010380316
0.0044865264
0.0047586633
1.0570151e-06
3.8714258e-06
2.298029e-06
1.2389575e-06
1.7431872e-06
2.0459556e-06
4.6794817e-06
6.3866134e-06
7.7122523e-06
1.957408e-06
3.8000018e-06
3.2383834e-06
3.3404962e-05
2.027649e-05
2.2931609e-05
7.7751982e-06
8.879392e-06
1.417532e-05
1.2624044e-05
7.9957567e-06
8.7002195e-06
4.3517071e-06
6.0230617e-06
0.0001169355
0.00011221535
9.2422616e-06
7.6740425e-06
8.8875286e-06
8.8169509e-06
3.7275213e-06
6.4908739e-06
6.9905101e-06
7.5374983e-06
1.8295865e-05
1.6603904e-05
7.2043787e-06
1.2911737e-05
2.9616921e-05
2.0598755e-05
8.2103312e-06
1.1520198e-05
9.990773e-06
1.0095064e-05
2.2031153e-05
2.6323113e-05
4.9672994e-06
4.3179406e-06
1.2677125e-05
2.505471e-05
4.2452331e-05
1.4631668e-05
1.6612717e-05
1.4672941e-05
1.4192645e-05
1.9883286e-07
5.428521e-06
2.9195623e-07
6.7840226e-06
5.6038948e-06
6.9931087e-06
1.0828227e-06
4.9527086e-05
1.8263617e-05
3.0085235e-06
3.3542157e-06
9.0983287e-07
4.031686e-06
3.2910367e-05
1.5453582e-05
3.1067327e-05
1.9111696e-05
1.5307163e-06
4.7367351e-06
4.8326776e-07
1.9500303e-06
3.2932378e-06
4.4879825e-06
4.626656e-05
1.6398873e-05
5.9498505e-06
1.916393e-06
7.2807382e-06
1.2776728e-05
1.952919e-06
4.4523422e-06
5.6156303e-07
6.131711e-06
3.8214232e-06
5.9048053e-06
3.3446037e-05
2.0271302e-05
2.9424781e-05
7.1986396e-06
1.1144529e-05
1.7939761e-05
1.254759e-05
7.5706893e-05
3.9532951e-05
2.6878358e-05
6.6310358e-05
3.5897217e-07
8.4830119e-07
1.0906225e-05
5.9589001e-06
9.6765337e-06
0.00013456019
6.8732308e-05
5.8794435e-05
3.2761622e-05
1.1176622e-05
7.3235923e-06
1.1413903e-05
1.2986194e-06
3.2295871e-06
7.2541233e-05
8.4829761e-06
1.4802819e-05
7.6987128e-07
2.7147699e-06
2.4879847e-06
9.4231671e-06
4.1480244e-06
7.158345e-06
1.7798131e-05
1.0739862e-05
1.5291351e-05
4.6774105e-06
9.2566439e-05
3.575347e-05
2.1045089e-05
2.9094724e-05
1.2713127e-05
1.8577471e-05
1.2887383e-05
4.1743473e-07
1.4398874e-06
1.401688e-06
2.4197043e-06
2.3810356e-06
2.8363632e-06
1.2429291e-05
4.9580096e-05
2.0131158e-05
2.2799987e-05
2.9053575e-05
1.0457205e-05
5.6253069e-06
7.5669192e-06
9.1597101e-06
1.157045e-05
5.1075224e-05
1.8430458e-05
1.9383926e-05
9.7700473e-06
1.5704409e-06
5.7072639e-06
5.3324217e-06
8.7094519e-06
9.3962341e-06
1.0503008e-05
6.5566249e-07
1.675855e-06
4.4859608e-06
5.2023377e-06
2.7729181e-06
4.4460527e-06
3.8106516e-05
2.9441364e-05
1.7961034e-05
2.2924006e-05
2.5969303e-05
2.5948716e-05
6.4682635e-06
8.6782443e-06
9.8801099e-06
1.0012284e-05
1.594117e-05
1.5902447e-05
1.4120228e-05
1.124895e-05
6.5408119e-06
8.2770719e-06
7.1625822e-06
8.5148319e-06
3.5361337e-06
4.9473461e-06
3.1619017e-06
4.8986514e-06
5.5069136e-06
5.6040236e-06
0.00011293897
8.0619186e-05
9.6248649e-05
7.6967441e-05
9.5482145e-06
1.0559436e-05
6.2652143e-06
7.313815e-06
1.014619e-05
8.4847287e-06
7.2796938e-06
8.8429597e-06
3.0172426e-06
3.0824793e-06
5.272786e-06
6.9186319e-06
6.3473395e-06
7.8921008e-06
8.0355621e-06
8.5741778e-06
6.3903066e-07
5.2271009e-06
5.7527302e-06
2.6721314e-06
3.7175805e-06
1.6271975e-05
1.618896e-05
1.8589264e-05
5.6860208e-06
1.4487532e-05
1.0919629e-06
4.9979253e-06
5.8717305e-06
2.3261141e-06
4.0900731e-06
2.6214701e-05
2.322295e-05
9.1978616e-06
1.029015e-05
3.7472268e-05
9.8015457e-06
1.1365525e-05
1.0091485e-05
1.1452787e-05
1.0129353e-05
1.2192287e-05
3.1996627e-05
5.6392382e-06
8.5065416e-06
3.6064589e-06
5.2423527e-06
6.0890293e-06
5.2881453e-06
8.9933974e-06
2.3680511e-05
2.1070564e-05
2.6212337e-05
5.0751125e-05
1.4395618e-05
1.2902159e-05
1.64262e-05
1.8765636e-05
1.4543077e-05
1.2967519e-05
1.3948972e-05
1.1968904e-05
1.1236876e-05
2.0021463e-05
8.1174857e-06
9.1112445e-06
1.9700498e-05
1.4804322e-05
0.00021491518
0.00052637371
0.00037563161
0.00019232426
0.0017437371
0.031989143
0.016877764
0.018213149
0.0011147199
0.00087669014
0.0013701908
0.0011706764
0.00049815532
0.00051325902
0.00090461568
0.00057084511
0.00086845316
0.001040967
0.0017183213
)


775
(
0.028106971
0.02201341
0.016393813
0.0068327371
0.021108258
4.0878876e-06
0.00020989471
4.0926084e-06
0.00020840978
3.1922462e-06
0.00035251167
0.00035062937
0.00035461793
0.00025954189
3.3367681e-05
3.3396123e-05
3.9891748e-06
2.8642092e-05
2.7829247e-05
3.9221679e-06
3.2599675e-05
9.4648346e-05
9.2101491e-05
9.5748792e-05
9.4765735e-05
9.449836e-05
0.00035707282
0.00026233859
0.0001489943
6.5045774e-05
3.5162573e-05
3.6261115e-05
0.00010058669
7.7096962e-05
7.6744808e-05
0.00010068804
0.00034246556
9.8804012e-05
7.7130841e-05
7.6847183e-05
0.00010627851
0.00010030065
7.1929771e-05
9.0355798e-05
0.00033521972
0.00033430706
0.00031457369
0.00024396359
0.00030138645
0.00028323755
0.00010559802
9.511965e-05
7.5128498e-05
7.6083968e-05
8.4519702e-05
9.4175377e-05
8.4109336e-05
8.2295672e-05
9.3323638e-05
8.3364334e-05
7.3410536e-05
6.8820711e-05
8.4192828e-05
9.7953273e-05
8.6013813e-05
7.5218537e-05
7.623494e-05
8.4606887e-05
9.4581077e-05
8.4422069e-05
8.3849778e-05
9.431379e-05
8.4087535e-05
0.00019636846
0.00014812719
0.00014290938
0.00033795944
0.00030478545
0.00010006451
0.00011141638
0.00011084875
0.00010037662
0.00011148745
0.00011043828
9.9084394e-05
9.8169302e-05
0.00010847064
0.00011188325
1.2299869e-05
4.0610835e-06
1.2218421e-05
4.9180844e-05
1.2317644e-05
4.0760996e-06
1.227246e-05
1.4139404e-05
3.4095139e-06
1.1926871e-05
4.2300413e-05
3.5026059e-05
4.2204683e-05
4.0405277e-06
1.2097057e-05
1.2181843e-05
2.0408941e-05
2.7603803e-05
1.9922423e-05
3.796631e-06
1.2070909e-05
1.2082874e-05
2.1293568e-05
3.3152309e-05
2.1150676e-05
5.9799408e-05
5.6718768e-05
5.2692983e-05
3.6977351e-05
4.8307972e-05
4.4813583e-05
2.1320261e-05
3.3014946e-05
2.1222103e-05
3.2257882e-05
2.0621728e-05
2.0843777e-05
2.9131005e-05
2.0723515e-05
2.0736782e-05
9.7548881e-05
6.6357963e-05
7.8807527e-05
8.4650368e-05
9.8206172e-05
0.00010318896
9.5349482e-05
9.9583423e-05
0.00018413321
3.4997828e-06
1.4899711e-06
0.00016781787
2.0790021e-06
3.3585733e-06
3.943624e-06
3.2192804e-05
2.8569824e-05
3.8556112e-06
3.1507213e-05
1.1487845e-05
1.4989518e-05
1.3872425e-05
2.7372668e-06
2.1794116e-05
2.7447236e-05
2.8982457e-06
2.0360504e-05
9.052448e-05
0.00023074389
0.00019636401
0.0001305307
0.0001392618
0.00020517254
0.00014558631
0.00011903533
0.00010451803
0.00034577839
9.7809348e-05
0.0003330728
9.6097706e-05
7.3891518e-05
7.2399732e-05
8.8626919e-05
8.0915476e-05
7.9253433e-05
0.00024584415
0.00026897591
0.0002861702
0.00033655692
0.00031792148
0.0003499645
0.00033106803
0.00025663898
0.00029839277
9.9138228e-05
0.00010826678
0.00010983688
9.4036856e-05
0.00010639802
0.00010397911
1.7989779e-05
2.4359164e-05
1.0531657e-05
3.6313487e-06
1.0927e-05
6.0243688e-06
2.3902835e-06
7.0346373e-06
1.0106936e-05
3.2099435e-06
9.6536948e-06
4.0125633e-06
1.1865192e-05
1.2072442e-05
3.7508491e-06
1.160078e-05
1.1286042e-05
9.9492442e-06
1.6157555e-05
1.1614709e-05
2.5738374e-06
8.1834932e-06
7.6530985e-06
2.2850204e-05
2.071516e-05
3.0560184e-06
8.6868038e-06
9.1760008e-06
4.7779799e-06
8.1627229e-06
3.2774257e-05
2.0540451e-05
2.0898811e-05
1.8238016e-05
2.9696267e-05
1.8921235e-05
3.0627821e-05
2.0084398e-05
1.9540568e-05
1.7936649e-05
1.3836835e-05
1.2818698e-05
2.2839279e-05
1.7497962e-05
2.5935519e-05
1.6684107e-05
2.424884e-05
1.4703249e-05
1.5663618e-05
1.9961789e-05
0.00021754641
0.00059502466
0.0083563991
0.0058365648
0.012248266
0.0072172683
0.01540173
0.012737944
0.023049211
0.001831677
0.0009049055
0.0023252421
0.00053614938
0.0024730903
0.00070562496
0.00084386962
0.0022128865
0.0015985343
0.00039081736
0.0053480824
0.014355154
0.00040862049
0.03549674
0.025450896
0.047782735
0.010706398
0.0016988343
0.0029900721
0.0013236062
9.0625855e-05
0.0014224709
0.00033576014
0.0010334788
0.0031228564
0.0016814526
0.00045980394
0.0021549236
0.0014649866
0.0026270775
0.0006798961
0.00037804963
0.0015932848
0.0010249498
0.0017044959
0.0028546434
0.0013626412
0.00090289527
0.00067214855
0.059837112
0.00043584763
0.00039585574
0.00015767631
0.00067433955
0.00039368779
0.00061131139
0.00061820775
0.00034447612
0.00054232525
0.00019714999
0.00025278794
0.00032034591
0.00025577525
0.00025634656
0.00025091414
0.00023597732
0.00023127908
0.00048534771
0.00033943722
0.00041470556
0.0005109794
0.00045055539
0.00031558527
0.0004718513
0.00044004093
0.00050451224
0.00061125361
0.00050089335
0.0005918544
0.002470208
0.00021660507
0.00021651524
0.0001307896
0.00021139305
0.00017414823
0.0029272193
0.00061125088
0.00058653961
0.0015114969
0.0014883149
0.00058986511
0.00055968899
0.00037005414
0.00034415899
0.0012321572
0.0012166477
0.0001562832
0.00015055687
0.0020641137
0.0015206486
0.00063946617
0.0019451694
0.00083557576
0.0013962602
0.00329916
0.0016368448
0.0016745159
0.0029794378
3.4970185e-05
0.00043234343
0.00034073556
0.00086921733
0.00011568893
0.0006619687
0.00084535609
9.8789235e-05
0.00059789694
0.0032545251
0.0013306721
0.0003575853
0.00043944501
8.0658245e-05
0.00027384333
0.00050846817
0.00031198904
0.00031214345
0.00029613116
0.00026829995
0.00029000942
0.00045053836
0.00015119114
0.0004349387
0.00013650358
0.0034558253
0.00032550002
0.0022867142
0.00095558751
0.00057655553
0.00032581431
0.0009484302
0.00066090261
0.00077783295
0.00055569604
0.00032189179
0.00091117091
0.0029405959
0.00070382107
0.00089022257
0.0018724323
0.0013301412
0.0011487912
0.0010095509
0.0010838517
0.00067443274
4.7027571e-05
0.00014891222
0.0010087645
0.00032965548
0.00059581057
0.0005992384
0.00028187761
0.00032361902
0.00069699535
0.00084123404
0.0001363027
0.00033525855
0.00076628783
0.0005237974
0.00067514869
0.00078014738
0.00011809804
0.00029074441
0.00069198307
0.0004623714
0.0027294384
0.00061947359
0.00047933289
0.00041988985
0.00057892494
0.00072536194
0.00043436394
0.0006169022
6.402408e-05
0.00024100368
0.00020889152
0.00033390055
0.00038786761
0.00042379777
0.00025907824
0.00030778708
0.00025922076
0.00030875277
0.00030292238
0.00024380971
0.0003414881
0.00026881011
0.0002365526
0.00028360864
0.0004107477
0.0005058294
0.00032065602
0.00036419952
0.0003776965
0.00038918828
0.00044249441
0.00051330795
0.00037494941
0.00040011034
0.00029931457
0.00029274532
0.00043654058
0.00049531756
0.00040124047
0.00046350971
0.00053832036
0.00053638177
0.00061726179
0.00067259183
0.00044320348
0.00048428961
0.00064985816
0.00056610582
0.0019477486
0.0026075072
0.00021918763
0.00021914982
7.772195e-05
0.00020380148
0.00019298114
0.0031463505
0.0031231513
0.00032078581
0.00064387003
0.00046769191
0.00052965734
0.0010477236
0.0003224523
0.00064185618
0.00032074485
0.00088201624
0.00080759234
0.001331374
0.00082868683
0.0016402904
0.00075254023
0.00060790931
0.00050498628
0.00069044603
0.00040054025
0.00055987139
0.00031676777
0.00037385925
0.00065987434
0.00065528902
0.0011340001
0.0025376372
0.040725649
0.01853967
0.017475287
0.0073593844
0.017535383
2.4806077e-05
0.00016936778
7.9670112e-05
3.1229329e-05
4.0534383e-05
5.1007142e-05
0.00021678564
0.00027033023
0.00034369908
6.247487e-05
0.00012908816
0.00010157165
0.00024943029
0.00020130872
0.00021572501
8.8500589e-05
0.0001014035
0.00015606873
0.00014153861
0.00012425651
0.00011779624
9.2824936e-05
0.00011588615
0.0020300575
0.002360655
0.00014726932
0.00012477601
0.00014876984
0.00011405326
8.1773055e-05
0.00012005673
0.00014088173
0.00014539212
0.00017310764
0.00023021595
7.9182221e-05
0.00013591648
0.00021154277
0.00018464819
9.0345634e-05
0.00012370587
0.00013719022
0.00013202261
0.00076878118
0.00093881093
0.00011227151
0.00010076107
0.00038094915
0.00029923475
0.00048696992
0.00020430478
0.00021637308
0.00019311467
0.00023863466
4.152709e-06
7.7142407e-05
6.4302932e-06
9.8489196e-05
7.6506048e-05
9.7270742e-05
4.4742604e-05
0.0015018778
0.00061207016
5.6545878e-05
6.1275243e-05
3.4664146e-05
7.9177054e-05
0.00093319413
0.00049246163
0.00044988209
0.0002792838
3.1301128e-05
7.5606141e-05
1.3221743e-05
4.2030237e-05
8.670071e-05
8.5438537e-05
0.0011721202
0.00037936886
7.1971582e-05
9.3956166e-05
0.00027696429
0.00054904758
3.9303889e-05
7.3709454e-05
1.6646713e-05
0.00021771958
0.00010832682
6.8649913e-05
0.00028819738
0.00022201603
0.00027416528
8.4532778e-05
0.00013291966
0.00020300339
0.00014913694
0.001213879
0.00054973335
0.00042171579
0.0017366336
8.4521368e-06
1.8664517e-05
0.00016840715
9.8016462e-05
0.00017545179
0.0014389066
0.00062035137
0.00058517636
0.00029942591
0.00016357096
8.9623425e-05
0.0001429178
5.7783243e-05
0.00013154888
0.0022194756
0.00030725341
0.00059013508
2.6967884e-05
0.00010218269
5.2693508e-05
0.00021992936
0.00010648746
0.00024366889
0.00046383425
0.00030374633
0.00037566889
0.00012885954
0.0011599655
0.00045650208
0.00024499832
0.00028805584
0.00018788842
0.00022302238
0.00016126128
1.0574106e-05
3.9147198e-05
3.0604419e-05
5.5449058e-05
6.3904939e-05
6.9537924e-05
0.0001946144
0.00094795223
0.00036291921
0.00039050162
0.00049389159
0.00019483099
9.6246394e-05
0.00016727191
0.00017498241
0.00027150842
0.0011210077
0.0004019394
0.00039638724
0.00019275646
7.4223137e-05
0.0002733531
0.00021119973
0.00035164749
0.00043021977
0.00044300071
2.111238e-05
4.9306218e-05
0.0001648729
0.00017157202
8.036757e-05
0.00013593096
0.00029966362
0.00024033335
0.00018626196
0.00024060158
0.00022892182
0.00025814264
7.3110548e-05
0.00010277873
0.00011766541
0.00011423324
0.00017105941
0.00018428708
0.00016627945
0.00012759134
9.9071596e-05
0.00012287091
9.5440781e-05