/*--------------------------------*- C++ -*----------------------------------*\
  =========                 |
  \\      /  F ield         | OpenFOAM: The Open Source CFD Toolbox
   \\    /   O peration     | Website:  https://openfoam.org
    \\  /    A nd           | Version:  8
     \\/     M anipulation  |
\*---------------------------------------------------------------------------*/
/*   Windows 32 and 64 bit porting by blueCAPE: http://www.bluecape.com.pt   *\
|  Based on Windows porting (2.0.x v4) by Symscape: http://www.symscape.com   |
\*---------------------------------------------------------------------------*/
FoamFile
{
    version     2.0;
    format      ascii;
    class       labelListList;
    location    "constant/vegetation";
    object      globalFaceFaces;
}
// * * * * * * * * * * * * * * * * * * * * * * * * * * * * * * * * * * * * * //


246
(

1429
(
37
441
442
443
444
472
473
474
484
485
486
487
488
489
490
491
492
493
494
495
496
497
498
499
500
501
502
503
504
505
506
507
508
509
510
511
512
513
514
515
516
517
518
519
520
524
525
526
527
528
529
530
531
532
533
534
535
536
537
538
539
540
541
546
547
548
549
550
551
552
553
554
555
556
557
558
559
560
561
562
563
564
565
566
567
568
569
570
571
572
573
574
575
576
577
578
579
580
581
584
585
586
587
588
589
590
591
592
594
595
596
597
598
599
605
606
607
608
609
610
611
612
613
614
615
616
617
618
619
620
621
622
623
624
625
626
627
628
629
630
631
632
633
634
635
636
637
638
639
640
646
647
648
649
650
651
652
653
654
655
656
657
658
664
666
667
670
671
672
673
674
675
676
677
678
679
680
681
682
683
684
685
686
687
688
689
690
691
692
693
710
711
712
713
714
715
716
717
718
719
720
721
738
739
740
741
742
743
744
745
746
747
748
749
750
751
752
763
764
765
766
767
768
772
773
774
775
776
777
778
779
780
781
782
783
784
785
786
787
788
789
790
791
792
793
794
795
796
797
798
799
800
801
848
849
851
863
868
870
871
872
891
909
916
941
942
944
987
988
989
1017
1030
1031
1032
1033
1034
1035
1036
1037
1038
1054
1055
1056
1057
1058
1059
1060
1061
1062
1063
1064
1065
1084
1085
1086
1090
1091
1092
1093
1094
1095
1102
1542
1554
1558
1586
1587
1589
1620
1621
1624
1625
1626
1627
1628
1629
1685
1686
1687
1688
1689
1690
1691
1692
1693
1694
1695
1696
1697
1698
1699
1700
1761
1763
1764
1765
1766
1767
1768
1769
1774
1849
1850
1851
1858
1859
1860
1861
1862
1863
1909
1910
1911
1918
1920
1971
2627
2628
2653
2654
2655
2656
2666
2667
2668
2669
2670
2671
2674
2675
2678
2681
2682
2683
2684
2685
2686
2693
2694
2695
2696
2697
2698
2699
2700
2701
2702
2703
2704
2705
2706
2707
2713
2714
2715
2718
2719
2720
2721
2722
2723
2728
2729
2730
2731
2732
2733
2734
2735
2736
2737
2745
2746
2747
2754
2755
2756
2757
2758
2759
2773
2774
2775
2776
2777
2778
2779
2780
2781
2784
2785
2786
2787
2788
2789
2790
2791
2792
2793
2794
2795
2796
2797
2798
2799
2800
2818
2819
2820
2826
2827
2828
2829
2830
2831
2839
2840
2841
2846
2847
2848
2849
2850
2851
2852
2853
2854
2855
2856
2857
2864
2865
2866
2867
2868
2869
2870
2871
2872
2881
2882
2883
2884
2885
2886
2887
2888
2889
2890
2891
2892
2921
2922
2923
2924
2925
2926
2927
2928
2929
2930
2931
2932
2933
2934
2935
2936
2938
2939
2940
2941
2942
2943
2944
2945
2946
2947
2948
2949
2950
2951
2952
2953
2954
2955
2964
2965
2966
2967
2968
2969
2970
2971
2972
2973
2974
2975
2976
2977
2978
2979
2980
2981
2982
2984
2985
2986
2990
2991
2992
2994
2995
2996
2997
2998
2999
3000
3001
3002
3010
3011
3012
3013
3014
3015
3016
3017
3018
3019
3020
3021
3022
3023
3024
3029
3030
3031
3032
3033
3034
3384
3389
3423
3437
3438
3446
3453
3493
3498
3499
3500
3501
3503
3505
3506
3507
3508
3512
3513
3519
3520
3521
3522
3523
3524
3525
3528
3529
3530
3531
3532
3533
3543
3545
3546
3609
3611
3612
3613
3614
3617
3618
3619
3640
3641
3642
3643
3644
3645
3646
3647
3648
3651
3652
3653
3654
3655
3656
3657
3658
3659
3660
3661
3662
3663
3670
3676
3677
3678
3679
3680
3681
3682
3683
3684
3685
3686
3687
3688
3689
3690
3691
3692
3693
3694
3695
3696
3697
3698
3699
3708
3711
3730
3731
3732
3733
3734
3735
3739
3742
3743
3744
3745
3746
3747
3748
3749
3750
3751
3752
3753
3754
3755
3756
3757
3758
3759
3760
3761
3762
3769
3770
3771
3775
3777
3833
3834
3835
3839
3840
3842
3847
3851
3852
3853
3854
3855
3856
3857
3860
3861
3862
3863
3864
3865
3873
3875
3876
3877
3878
3879
3880
3881
3882
3900
3901
3910
3936
3937
3938
3939
3940
3941
3944
3945
3946
3968
3969
3971
3972
3973
3974
3975
3976
3980
3981
3982
3986
3987
3988
3989
3990
3991
3992
3993
3994
3995
3996
3997
3999
4001
4002
4003
4019
4022
4023
4024
4025
4026
4027
4028
4029
4030
4031
4032
4033
4034
4036
4038
4039
4040
4041
4042
4043
4044
4045
4046
4075
4076
4082
4087
4088
4089
4090
4123
4124
4125
4131
4132
4142
4143
4144
4145
4146
4147
4148
4149
4150
4151
4152
4153
4161
4162
4163
4164
4165
4166
4167
4168
4169
4171
4173
4178
4179
4180
4181
4182
4183
4184
4185
4186
4187
4188
4189
4190
4191
4192
4193
4194
4195
4196
4197
4198
4199
4200
4201
4225
4226
4227
4228
4229
4230
4231
4232
4233
4234
4235
4236
4237
4238
4239
4240
4241
4242
4243
4244
4245
4249
4259
4260
4261
4262
4285
4286
4288
4292
4293
4296
4332
4334
4335
4346
4347
4348
4365
4366
4367
4426
4427
4428
4429
4430
4431
4957
5348
5349
5350
5374
5375
5377
5378
5379
5380
5381
5382
5383
5384
5385
5386
5388
5391
5393
5394
5395
5396
5398
5399
5403
5404
5407
5414
5419
5434
5435
5447
5464
5490
5492
5493
5494
5495
5496
5497
5498
5499
5500
5501
5502
5503
5504
5505
5506
5507
5508
5509
5510
5511
5512
5513
5514
5515
5516
5517
5518
5519
5520
5521
5522
5523
5524
5525
5526
5527
5528
5529
5530
5531
5532
5533
5534
5535
5536
5537
5538
5539
5540
5541
5542
5543
5544
5545
5546
5547
5548
5549
5550
5551
5552
5553
5554
5555
5556
5557
5558
5559
5560
5561
5562
5563
5564
5565
5566
5567
5568
5569
5570
5571
5572
5573
5574
5575
5576
5577
5578
5579
5580
5581
5582
5583
5584
5585
5586
5587
5588
5589
5590
5591
5592
5593
5594
5595
5596
5597
5598
5599
5600
5601
5602
5603
5604
5605
5606
5607
5608
5609
5610
5611
5612
5613
5614
5615
5616
5617
5618
5619
5620
5621
5622
5623
5624
5625
5626
5627
5628
5629
5630
5631
5632
5633
5634
5635
5636
5637
5638
5639
5640
5641
5642
5643
5644
5645
5646
5647
5648
5649
5650
5651
5652
5653
5654
5655
5656
5657
5658
5659
5660
5661
5662
5663
5664
5665
5666
5667
5668
5669
5670
5671
5672
5673
5674
5675
5676
5677
5678
5679
5680
5681
5682
5683
5684
5685
5686
5687
5688
5689
5690
5691
5692
5693
5694
5695
5696
5697
5698
5700
5701
5703
5706
5738
5739
5740
5741
5742
5743
5744
5745
5746
5747
5748
5749
5750
5751
5752
5753
5754
5755
5756
5757
5758
5759
5760
5761
5762
5763
5764
5765
5766
5767
5768
5769
5770
5771
5772
5773
5774
5775
5776
5777
5778
5779
5780
5781
5782
5783
5784
5785
5786
5787
5788
5789
5790
5791
5792
5793
5794
5795
5796
5797
5798
5799
5800
5801
5802
5803
5804
5805
5806
5807
5808
5809
5810
5811
5812
5813
5814
5815
5816
5817
5818
5819
5820
5821
5822
5823
5824
5825
5826
5827
5828
5829
5830
5831
5832
5833
5834
5835
5836
5837
5838
5839
5840
5841
5842
5843
5844
5845
5846
5847
5848
5849
5850
5851
5852
5853
5854
5855
5856
5857
5858
5859
5860
5861
5862
5863
5864
5865
5866
5867
5868
5869
5870
5871
5872
5873
5874
5875
5876
5877
5878
5879
5880
5881
5882
5883
5884
5885
5886
5887
5888
5889
5890
5891
5892
5893
5894
5895
5896
5897
5898
5899
5900
5901
5902
5903
5904
5905
5906
5907
5908
5909
5910
5911
5912
5913
5914
5915
5916
5917
5918
5919
5920
5921
5922
5923
5924
5925
5926
5927
5928
5929
5930
5931
5932
5933
5934
5935
5936
5937
5938
5939
5940
5941
5942
5943
5944
5945
5946
5947
5948
5949
5950
5951
5952
5953
5954
5955
5956
5957
5958
5959
5960
5961
5962
5963
5964
5965
5966
5967
5968
5969
5970
5971
5972
5973
5974
5975
5976
5977
5978
5979
5980
5981
5982
5983
5984
5985
5986
5987
5988
5989
5990
5991
5992
5993
5994
5995
5996
5997
5998
5999
6000
6001
6004
6005
6012
6025
6027
6028
6030
6031
6036
6037
6038
6040
6045
6046
6057
6062
6063
)


775
(
1949
1971
2627
2628
2654
3498
3499
3501
3502
3503
3504
3510
3516
3517
3519
3520
3521
3522
3523
3524
3525
3526
3527
3538
3539
3540
3541
3542
3543
3544
3545
3546
3547
3548
3549
3557
3558
3559
3560
3561
3563
3564
3565
3567
3568
3569
3570
3571
3572
3573
3575
3576
3577
3578
3579
3580
3581
3582
3583
3584
3592
3593
3597
3598
3599
3600
3601
3602
3603
3604
3605
3606
3607
3608
3609
3610
3620
3621
3622
3623
3624
3631
3632
3633
3634
3635
3636
3638
3643
3644
3645
3650
3652
3653
3654
3658
3660
3662
3676
3678
3680
3682
3683
3684
3688
3690
3692
3694
3695
3696
3730
3731
3732
3736
3737
3738
3739
3740
3741
3745
3746
3747
3748
3749
3750
3757
3758
3759
3767
3772
3773
3778
3784
3785
3786
3791
3833
3834
3835
3839
3840
3842
3851
3852
3853
3854
3855
3856
3857
3860
3861
3862
3863
3864
3865
3868
3873
3875
3876
3877
3878
3879
3881
3882
3885
3886
3888
3889
3915
3916
3917
3918
3919
3936
3937
3938
3939
3941
3943
3944
3945
3946
3947
3948
3949
3953
3954
3955
3968
3969
3971
3972
3973
3974
3975
3976
3980
3981
3982
3986
3987
3988
3989
3990
3991
3992
3993
3994
3995
3996
3997
3998
3999
4001
4002
4003
4019
4022
4023
4024
4025
4026
4027
4028
4029
4030
4031
4032
4033
4034
4038
4041
4042
4043
4044
4045
4046
4050
4075
4085
4090
4502
4503
4956
4957
5348
5350
5376
5377
5378
5379
5388
5394
5395
5398
5399
5402
5403
5406
5414
5417
5419
5420
5421
5424
5425
5426
5429
5430
5431
5434
5435
5437
5438
5439
5447
5448
5449
5452
5453
5454
5455
5456
5457
5458
5463
5490
5492
5493
5494
5495
5496
5497
5498
5499
5500
5501
5502
5503
5504
5505
5506
5507
5508
5509
5510
5511
5512
5513
5514
5515
5516
5517
5518
5519
5520
5521
5522
5523
5524
5525
5526
5527
5528
5529
5530
5531
5532
5533
5534
5535
5536
5537
5538
5539
5540
5541
5542
5543
5544
5545
5546
5547
5548
5549
5550
5551
5552
5553
5554
5555
5556
5557
5558
5559
5560
5561
5562
5563
5564
5565
5566
5567
5568
5569
5570
5571
5572
5573
5574
5575
5576
5577
5578
5579
5580
5581
5582
5583
5584
5585
5586
5587
5588
5589
5590
5591
5592
5593
5594
5595
5596
5597
5598
5599
5600
5601
5602
5603
5604
5605
5606
5607
5608
5609
5610
5611
5612
5613
5614
5615
5616
5617
5618
5619
5620
5621
5622
5623
5624
5625
5626
5627
5628
5629
5630
5631
5632
5633
5634
5635
5636
5637
5638
5639
5640
5641
5642
5643
5644
5645
5646
5647
5648
5649
5650
5651
5652
5653
5654
5655
5656
5657
5658
5659
5660
5661
5662
5663
5664
5665
5666
5667
5668
5669
5670
5671
5672
5673
5674
5675
5676
5677
5678
5679
5680
5681
5682
5683
5684
5685
5686
5687
5688
5689
5690
5691
5692
5693
5694
5695
5696
5700
5702
5705
5706
5709
5710
5738
5739
5740
5741
5742
5743
5744
5745
5746
5747
5748
5749
5750
5751
5752
5753
5754
5755
5756
5757
5758
5759
5760
5761
5762
5763
5764
5765
5766
5767
5768
5769
5770
5771
5772
5773
5774
5775
5776
5777
5778
5779
5780
5781
5782
5783
5784
5785
5786
5787
5788
5789
5790
5791
5792
5793
5794
5795
5796
5797
5798
5799
5800
5801
5802
5803
5804
5805
5806
5807
5808
5809
5810
5811
5812
5813
5814
5815
5816
5817
5818
5819
5820
5821
5822
5823
5824
5825
5826
5827
5828
5829
5830
5831
5832
5833
5834
5835
5836
5837
5838
5839
5840
5841
5842
5843
5844
5845
5846
5847
5848
5849
5850
5851
5852
5853
5854
5855
5856
5857
5858
5859
5860
5861
5862
5863
5864
5865
5866
5867
5868
5869
5870
5871
5872
5873
5874
5875
5876
5877
5878
5879
5880
5881
5882
5883
5884
5885
5886
5887
5888
5889
5890
5891
5892
5893
5894
5895
5896
5897
5898
5899
5900
5901
5902
5903
5904
5905
5906
5907
5908
5909
5910
5911
5912
5913
5914
5915
5916
5917
5918
5919
5920
5921
5922
5923
5924
5925
5926
5927
5928
5929
5930
5931
5932
5933
5934
5935
5936
5937
5938
5939
5940
5941
5942
5943
5944
5945
5946
5947
5948
5949
5950
5951
5952
5953
5954
5955
5956
5957
5958
5959
5960
5961
5962
5963
5964
5965
5966
5967
5968
5969
5970
5971
5972
5973
5974
5975
5976
5977
5978
5979
5980
5981
5982
5983
5984
5985
5986
5987
5988
5989
5990
5991
5992
5993
5994
5995
5996
5997
5998
5999
6002
6007
6012
6014
6025
6030
6036
6038
6040
6051
6052
6057
6062
6063
6066
)


1593
(
441
442
443
444
472
473
474
484
485
486
487
488
489
490
491
492
493
494
495
496
497
498
499
500
501
502
503
504
505
506
507
508
509
510
511
512
513
514
515
516
517
518
519
520
524
525
526
527
528
529
530
531
532
533
534
535
536
537
538
539
540
541
546
547
548
549
550
551
552
553
554
555
556
557
558
559
560
561
562
563
564
565
566
567
568
569
570
571
572
573
574
575
576
577
578
579
580
581
584
585
586
587
588
589
590
591
592
594
595
596
597
598
599
605
606
607
608
609
610
611
612
613
614
615
616
617
618
619
620
621
622
623
624
625
626
627
628
629
630
631
632
633
634
635
636
637
638
639
640
646
647
648
649
650
651
652
653
654
655
656
657
658
664
666
667
670
671
672
673
674
675
676
677
678
679
680
681
682
683
684
685
686
687
688
689
690
691
692
693
710
711
712
713
714
715
716
717
718
719
720
721
738
739
740
741
742
743
744
745
746
747
748
749
750
751
752
763
764
765
766
767
768
772
773
774
775
776
777
778
779
780
781
782
783
784
785
786
787
788
789
790
791
792
793
794
795
796
797
798
799
800
801
848
849
851
853
855
862
863
868
870
871
872
874
875
877
878
891
892
899
901
909
916
939
941
942
944
957
959
961
962
985
987
988
989
990
1017
1030
1031
1032
1033
1034
1035
1036
1037
1038
1039
1040
1041
1042
1043
1044
1051
1054
1055
1056
1057
1058
1059
1060
1061
1062
1063
1064
1065
1066
1067
1068
1069
1070
1071
1084
1085
1086
1090
1091
1092
1093
1094
1095
1105
1106
1107
1108
1109
1110
1111
1113
1114
1115
1116
1541
1542
1543
1546
1554
1558
1575
1586
1587
1588
1589
1596
1601
1602
1620
1621
1622
1623
1624
1625
1626
1627
1628
1629
1634
1662
1663
1664
1665
1667
1668
1685
1686
1687
1688
1689
1690
1691
1692
1693
1694
1695
1696
1697
1698
1699
1700
1740
1741
1742
1761
1762
1763
1764
1765
1766
1767
1768
1769
1774
1849
1850
1851
1858
1859
1860
1861
1862
1863
1909
1910
1911
1918
1919
1920
2627
2628
2653
2654
2655
2656
2666
2667
2668
2669
2670
2671
2674
2675
2678
2681
2682
2683
2684
2685
2686
2693
2694
2695
2696
2697
2698
2699
2700
2701
2702
2703
2704
2705
2706
2707
2713
2714
2715
2718
2719
2720
2721
2722
2723
2728
2729
2730
2731
2732
2733
2734
2735
2736
2737
2745
2746
2747
2754
2755
2756
2757
2758
2759
2773
2774
2775
2776
2777
2778
2779
2780
2781
2784
2785
2786
2787
2788
2789
2790
2791
2792
2793
2794
2795
2796
2797
2798
2799
2800
2818
2819
2820
2826
2827
2828
2829
2830
2831
2839
2840
2841
2846
2847
2848
2849
2850
2851
2852
2853
2854
2855
2856
2857
2864
2865
2866
2867
2868
2869
2870
2871
2872
2881
2882
2883
2884
2885
2886
2887
2888
2889
2890
2891
2892
2921
2922
2923
2924
2925
2926
2927
2928
2929
2930
2931
2932
2933
2934
2935
2936
2938
2939
2940
2941
2942
2943
2944
2945
2946
2947
2948
2949
2950
2951
2952
2953
2954
2955
2964
2965
2966
2967
2968
2969
2970
2971
2972
2973
2974
2975
2976
2977
2978
2979
2980
2981
2982
2984
2985
2986
2990
2991
2992
2994
2995
2996
2997
2998
2999
3000
3001
3002
3010
3011
3012
3013
3014
3015
3016
3017
3018
3019
3020
3021
3022
3023
3024
3029
3030
3031
3032
3033
3034
3384
3385
3389
3423
3424
3428
3430
3432
3436
3437
3438
3446
3452
3453
3458
3493
3498
3500
3501
3503
3505
3506
3507
3508
3512
3513
3515
3519
3520
3521
3522
3523
3524
3525
3528
3529
3530
3531
3532
3533
3535
3536
3543
3545
3546
3550
3551
3553
3554
3577
3585
3586
3587
3588
3589
3590
3591
3611
3612
3613
3614
3615
3616
3617
3618
3619
3625
3626
3627
3628
3629
3630
3640
3641
3642
3643
3644
3645
3646
3647
3648
3649
3650
3651
3652
3653
3654
3655
3656
3657
3658
3659
3660
3661
3662
3663
3666
3670
3671
3672
3673
3674
3675
3676
3677
3678
3679
3680
3681
3682
3683
3684
3685
3686
3687
3688
3689
3690
3691
3692
3693
3694
3695
3696
3697
3698
3699
3702
3704
3706
3707
3708
3711
3714
3717
3719
3722
3723
3725
3728
3729
3730
3731
3732
3733
3734
3735
3739
3741
3742
3743
3744
3745
3746
3747
3748
3749
3750
3751
3752
3753
3754
3755
3756
3757
3758
3759
3760
3761
3762
3763
3764
3765
3769
3770
3771
3775
3776
3777
3781
3782
3783
3787
3788
3789
3833
3834
3835
3839
3840
3842
3844
3847
3850
3851
3852
3853
3854
3855
3856
3857
3860
3861
3862
3863
3864
3865
3873
3874
3875
3876
3877
3878
3879
3880
3881
3882
3888
3900
3901
3902
3910
3917
3936
3937
3938
3939
3940
3941
3945
3952
3953
3955
3967
3968
3969
3971
3972
3973
3974
3975
3976
3980
3981
3982
3986
3987
3988
3989
3990
3991
3992
3993
3994
3995
3996
3997
3999
4000
4001
4002
4003
4019
4022
4023
4024
4025
4026
4027
4028
4029
4030
4031
4032
4033
4034
4036
4037
4038
4039
4040
4041
4042
4043
4044
4045
4046
4075
4076
4082
4087
4088
4089
4090
4123
4124
4125
4131
4132
4136
4138
4141
4142
4143
4144
4145
4146
4147
4148
4149
4150
4151
4152
4153
4154
4155
4158
4161
4162
4163
4164
4165
4166
4167
4168
4169
4171
4172
4173
4177
4178
4179
4180
4181
4182
4183
4184
4185
4186
4187
4188
4189
4190
4191
4192
4193
4194
4195
4196
4197
4198
4199
4200
4201
4204
4205
4206
4207
4208
4209
4210
4211
4212
4213
4214
4225
4226
4227
4228
4229
4230
4231
4232
4233
4234
4235
4236
4237
4238
4239
4240
4241
4242
4243
4244
4245
4246
4247
4248
4249
4250
4251
4256
4257
4258
4259
4260
4261
4262
4285
4286
4288
4292
4293
4296
4332
4334
4335
4346
4347
4348
4365
4366
4367
4426
4427
4428
4429
4430
4431
4957
5348
5349
5350
5374
5375
5376
5377
5378
5379
5380
5381
5382
5383
5384
5385
5386
5388
5389
5390
5391
5392
5393
5394
5395
5396
5398
5399
5403
5404
5407
5414
5419
5420
5434
5435
5441
5456
5463
5464
5490
5492
5493
5494
5495
5496
5497
5498
5499
5500
5501
5502
5503
5504
5505
5506
5507
5508
5509
5510
5511
5512
5513
5514
5515
5516
5517
5518
5519
5520
5521
5522
5523
5524
5525
5526
5527
5528
5529
5530
5531
5532
5533
5534
5535
5536
5537
5538
5539
5540
5541
5542
5543
5544
5545
5546
5547
5548
5549
5550
5551
5552
5553
5554
5555
5556
5557
5558
5559
5560
5561
5562
5563
5564
5565
5566
5567
5568
5569
5570
5571
5572
5573
5574
5575
5576
5577
5578
5579
5580
5581
5582
5583
5584
5585
5586
5587
5588
5589
5590
5591
5592
5593
5594
5595
5596
5597
5598
5599
5600
5601
5602
5603
5604
5605
5606
5607
5608
5609
5610
5611
5612
5613
5614
5615
5616
5617
5618
5619
5620
5621
5622
5623
5624
5625
5626
5627
5628
5629
5630
5631
5632
5633
5634
5635
5636
5637
5638
5639
5640
5641
5642
5643
5644
5645
5646
5647
5648
5649
5650
5651
5652
5653
5654
5655
5656
5657
5658
5659
5660
5661
5662
5663
5664
5665
5666
5667
5668
5669
5670
5671
5672
5673
5674
5675
5676
5677
5678
5679
5680
5681
5682
5683
5684
5685
5686
5687
5688
5689
5690
5691
5692
5693
5694
5695
5696
5697
5698
5699
5700
5701
5703
5706
5738
5739
5740
5741
5742
5743
5744
5745
5746
5747
5748
5749
5750
5751
5752
5753
5754
5755
5756
5757
5758
5759
5760
5761
5762
5763
5764
5765
5766
5767
5768
5769
5770
5771
5772
5773
5774
5775
5776
5777
5778
5779
5780
5781
5782
5783
5784
5785
5786
5787
5788
5789
5790
5791
5792
5793
5794
5795
5796
5797
5798
5799
5800
5801
5802
5803
5804
5805
5806
5807
5808
5809
5810
5811
5812
5813
5814
5815
5816
5817
5818
5819
5820
5821
5822
5823
5824
5825
5826
5827
5828
5829
5830
5831
5832
5833
5834
5835
5836
5837
5838
5839
5840
5841
5842
5843
5844
5845
5846
5847
5848
5849
5850
5851
5852
5853
5854
5855
5856
5857
5858
5859
5860
5861
5862
5863
5864
5865
5866
5867
5868
5869
5870
5871
5872
5873
5874
5875
5876
5877
5878
5879
5880
5881
5882
5883
5884
5885
5886
5887
5888
5889
5890
5891
5892
5893
5894
5895
5896
5897
5898
5899
5900
5901
5902
5903
5904
5905
5906
5907
5908
5909
5910
5911
5912
5913
5914
5915
5916
5917
5918
5919
5920
5921
5922
5923
5924
5925
5926
5927
5928
5929
5930
5931
5932
5933
5934
5935
5936
5937
5938
5939
5940
5941
5942
5943
5944
5945
5946
5947
5948
5949
5950
5951
5952
5953
5954
5955
5956
5957
5958
5959
5960
5961
5962
5963
5964
5965
5966
5967
5968
5969
5970
5971
5972
5973
5974
5975
5976
5977
5978
5979
5980
5981
5982
5983
5984
5985
5986
5987
5988
5989
5990
5991
5992
5993
5994
5995
5996
5997
5998
5999
6000
6001
6004
6005
6012
6025
6027
6028
6030
6031
6036
6037
6038
6045
6046
6057
6062
6063
)


759
(
1949
1971
2627
2628
2654
3498
3499
3501
3502
3503
3504
3510
3516
3517
3519
3520
3521
3522
3523
3524
3525
3526
3527
3539
3540
3541
3542
3543
3544
3545
3546
3547
3548
3549
3557
3558
3559
3560
3561
3568
3569
3570
3571
3572
3573
3577
3578
3579
3580
3581
3582
3583
3584
3600
3601
3602
3603
3604
3605
3606
3607
3608
3609
3610
3620
3621
3622
3623
3624
3631
3632
3633
3634
3635
3636
3643
3644
3645
3652
3653
3654
3658
3660
3662
3678
3680
3682
3683
3684
3688
3690
3692
3694
3695
3696
3730
3731
3732
3737
3738
3739
3740
3741
3745
3746
3747
3748
3749
3750
3757
3758
3759
3833
3834
3835
3839
3840
3842
3851
3852
3853
3854
3855
3856
3857
3860
3861
3862
3863
3864
3865
3868
3873
3875
3876
3877
3878
3879
3881
3882
3884
3885
3886
3888
3889
3913
3914
3915
3916
3917
3918
3919
3936
3937
3938
3939
3940
3941
3943
3944
3945
3946
3947
3948
3949
3950
3952
3953
3954
3955
3968
3969
3971
3972
3973
3974
3975
3976
3980
3981
3982
3986
3987
3988
3989
3990
3991
3992
3993
3994
3995
3996
3997
3999
4001
4002
4003
4019
4022
4023
4024
4025
4026
4027
4028
4029
4030
4031
4032
4033
4034
4038
4041
4042
4043
4044
4045
4046
4050
4075
4085
4089
4090
4502
4503
4956
4957
5348
5350
5375
5376
5378
5379
5388
5395
5398
5399
5402
5403
5414
5417
5420
5421
5422
5424
5425
5426
5429
5430
5431
5434
5435
5437
5438
5439
5447
5448
5449
5452
5453
5454
5455
5456
5457
5458
5490
5492
5493
5494
5495
5496
5497
5498
5499
5500
5501
5502
5503
5504
5505
5506
5507
5508
5509
5510
5511
5512
5513
5514
5515
5516
5517
5518
5519
5520
5521
5522
5523
5524
5525
5526
5527
5528
5529
5530
5531
5532
5533
5534
5535
5536
5537
5538
5539
5540
5541
5542
5543
5544
5545
5546
5547
5548
5549
5550
5551
5552
5553
5554
5555
5556
5557
5558
5559
5560
5561
5562
5563
5564
5565
5566
5567
5568
5569
5570
5571
5572
5573
5574
5575
5576
5577
5578
5579
5580
5581
5582
5583
5584
5585
5586
5587
5588
5589
5590
5591
5592
5593
5594
5595
5596
5597
5598
5599
5600
5601
5602
5603
5604
5605
5606
5607
5608
5609
5610
5611
5612
5613
5614
5615
5616
5617
5618
5619
5620
5621
5622
5623
5624
5625
5626
5627
5628
5629
5630
5631
5632
5633
5634
5635
5636
5637
5638
5639
5640
5641
5642
5643
5644
5645
5646
5647
5648
5649
5650
5651
5652
5653
5654
5655
5656
5657
5658
5659
5660
5661
5662
5663
5664
5665
5666
5667
5668
5669
5670
5671
5672
5673
5674
5675
5676
5677
5678
5679
5680
5681
5682
5683
5684
5685
5686
5687
5688
5689
5690
5691
5692
5693
5694
5695
5696
5698
5700
5702
5703
5705
5706
5710
5738
5739
5740
5741
5742
5743
5744
5745
5746
5747
5748
5749
5750
5751
5752
5753
5754
5755
5756
5757
5758
5759
5760
5761
5762
5763
5764
5765
5766
5767
5768
5769
5770
5771
5772
5773
5774
5775
5776
5777
5778
5779
5780
5781
5782
5783
5784
5785
5786
5787
5788
5789
5790
5791
5792
5793
5794
5795
5796
5797
5798
5799
5800
5801
5802
5803
5804
5805
5806
5807
5808
5809
5810
5811
5812
5813
5814
5815
5816
5817
5818
5819
5820
5821
5822
5823
5824
5825
5826
5827
5828
5829
5830
5831
5832
5833
5834
5835
5836
5837
5838
5839
5840
5841
5842
5843
5844
5845
5846
5847
5848
5849
5850
5851
5852
5853
5854
5855
5856
5857
5858
5859
5860
5861
5862
5863
5864
5865
5866
5867
5868
5869
5870
5871
5872
5873
5874
5875
5876
5877
5878
5879
5880
5881
5882
5883
5884
5885
5886
5887
5888
5889
5890
5891
5892
5893
5894
5895
5896
5897
5898
5899
5900
5901
5902
5903
5904
5905
5906
5907
5908
5909
5910
5911
5912
5913
5914
5915
5916
5917
5918
5919
5920
5921
5922
5923
5924
5925
5926
5927
5928
5929
5930
5931
5932
5933
5934
5935
5936
5937
5938
5939
5940
5941
5942
5943
5944
5945
5946
5947
5948
5949
5950
5951
5952
5953
5954
5955
5956
5957
5958
5959
5960
5961
5962
5963
5964
5965
5966
5967
5968
5969
5970
5971
5972
5973
5974
5975
5976
5977
5978
5979
5980
5981
5982
5983
5984
5985
5986
5987
5988
5989
5990
5991
5992
5993
5994
5995
5996
5997
5998
5999
6000
6001
6002
6005
6007
6012
6014
6025
6027
6030
6036
6038
6039
6040
6051
6057
6062
6063
6066
)


1274
(
441
442
443
444
472
473
474
484
485
486
487
488
489
490
491
492
493
494
495
496
497
498
499
500
501
502
503
504
505
506
507
508
509
510
511
512
513
514
515
516
517
518
519
520
524
525
526
527
528
529
530
531
532
533
534
535
536
537
538
539
540
541
546
547
548
549
550
551
552
553
554
555
556
557
558
559
560
561
562
563
564
565
566
567
568
569
570
571
572
573
574
575
576
577
578
579
580
581
584
585
586
587
588
589
590
591
592
594
595
596
597
598
599
605
606
607
608
609
610
611
612
613
614
615
616
617
618
619
620
621
622
623
624
625
626
627
628
629
630
631
632
633
634
635
636
637
638
639
640
646
647
648
649
650
651
652
653
654
655
656
657
658
664
666
667
670
671
672
673
674
675
676
677
678
679
680
681
682
683
684
685
686
687
688
689
690
691
692
693
710
711
712
713
714
715
716
717
718
719
720
721
738
739
740
741
742
743
744
745
746
747
748
749
750
751
752
763
764
765
766
767
768
772
773
774
775
776
777
778
779
780
781
782
783
784
785
786
787
788
789
790
791
792
793
794
795
796
797
798
799
800
801
848
851
863
870
891
909
916
1030
1036
1054
1060
1084
1090
1093
1554
1558
1586
1625
1685
1849
1858
1861
1971
2627
2628
2653
2654
2656
2666
2667
2668
2669
2670
2671
2674
2675
2678
2681
2682
2683
2684
2685
2686
2693
2694
2695
2696
2697
2698
2699
2700
2701
2702
2703
2704
2705
2706
2707
2713
2714
2715
2718
2719
2720
2721
2722
2723
2728
2729
2730
2731
2732
2733
2734
2735
2736
2737
2745
2746
2747
2754
2755
2756
2757
2758
2759
2773
2774
2775
2776
2777
2778
2779
2780
2781
2784
2785
2786
2787
2788
2789
2790
2791
2792
2793
2794
2795
2796
2797
2798
2799
2800
2818
2819
2820
2826
2827
2828
2829
2830
2831
2839
2840
2841
2846
2847
2848
2849
2850
2851
2852
2853
2854
2855
2856
2857
2864
2865
2866
2867
2868
2869
2870
2871
2872
2881
2882
2883
2884
2885
2886
2887
2888
2889
2890
2891
2892
2921
2922
2923
2924
2925
2926
2927
2928
2929
2930
2931
2932
2933
2934
2935
2936
2938
2939
2940
2941
2942
2943
2944
2945
2946
2947
2948
2949
2950
2951
2952
2953
2954
2955
2964
2965
2966
2967
2968
2969
2970
2971
2972
2973
2974
2975
2976
2977
2978
2979
2980
2981
2982
2984
2985
2986
2990
2991
2992
2994
2995
2996
2997
2998
2999
3000
3001
3002
3010
3011
3012
3013
3014
3015
3016
3017
3018
3019
3020
3021
3022
3023
3024
3029
3030
3031
3032
3033
3034
3389
3498
3499
3501
3502
3503
3506
3507
3508
3519
3520
3521
3522
3523
3524
3525
3528
3529
3530
3531
3532
3533
3541
3542
3543
3545
3546
3609
3610
3611
3612
3613
3620
3621
3641
3642
3643
3644
3645
3651
3652
3653
3654
3655
3656
3657
3658
3659
3660
3661
3662
3663
3676
3677
3678
3679
3681
3682
3683
3684
3685
3686
3687
3688
3689
3690
3691
3692
3693
3694
3695
3696
3697
3698
3699
3730
3731
3732
3734
3735
3739
3742
3743
3744
3745
3746
3747
3748
3749
3750
3751
3752
3753
3754
3755
3756
3757
3758
3759
3760
3761
3762
3833
3834
3835
3839
3840
3842
3844
3847
3851
3852
3853
3854
3855
3856
3857
3860
3861
3862
3863
3864
3865
3873
3874
3875
3876
3877
3878
3879
3880
3881
3882
3901
3910
3936
3937
3938
3939
3940
3941
3943
3944
3945
3946
3968
3969
3971
3972
3973
3974
3975
3976
3980
3981
3982
3986
3987
3988
3989
3990
3991
3992
3993
3994
3995
3996
3997
3999
4001
4002
4003
4019
4022
4023
4024
4025
4026
4027
4028
4029
4030
4031
4032
4033
4034
4038
4039
4040
4041
4042
4043
4044
4045
4046
4075
4076
4089
4090
4124
4125
4142
4146
4147
4148
4149
4150
4164
4167
4168
4169
4178
4190
4191
4192
4193
4194
4195
4237
4238
4239
4240
4241
4242
4259
4260
4261
4262
4285
4286
4288
4292
4293
4296
4346
4347
4348
4365
4366
4367
4426
4427
4428
4429
4430
4431
4957
4980
5348
5349
5350
5374
5375
5378
5379
5380
5386
5391
5393
5394
5395
5398
5399
5402
5404
5414
5417
5418
5424
5425
5434
5435
5437
5438
5439
5447
5448
5449
5454
5458
5490
5492
5493
5494
5495
5496
5497
5498
5499
5500
5501
5502
5503
5504
5505
5506
5507
5508
5509
5510
5511
5512
5513
5514
5515
5516
5517
5518
5519
5520
5521
5522
5523
5524
5525
5526
5527
5528
5529
5530
5531
5532
5533
5534
5535
5536
5537
5538
5539
5540
5541
5542
5543
5544
5545
5546
5547
5548
5549
5550
5551
5552
5553
5554
5555
5556
5557
5558
5559
5560
5561
5562
5563
5564
5565
5566
5567
5568
5569
5570
5571
5572
5573
5574
5575
5576
5577
5578
5579
5580
5581
5582
5583
5584
5585
5586
5587
5588
5589
5590
5591
5592
5593
5594
5595
5596
5597
5598
5599
5600
5601
5602
5603
5604
5605
5606
5607
5608
5609
5610
5611
5612
5613
5614
5615
5616
5617
5618
5619
5620
5621
5622
5623
5624
5625
5626
5627
5628
5629
5630
5631
5632
5633
5634
5635
5636
5637
5638
5639
5640
5641
5642
5643
5644
5645
5646
5647
5648
5649
5650
5651
5652
5653
5654
5655
5656
5657
5658
5659
5660
5661
5662
5663
5664
5665
5666
5667
5668
5669
5670
5671
5672
5673
5674
5675
5676
5677
5678
5679
5680
5681
5682
5683
5684
5685
5686
5687
5688
5689
5690
5691
5692
5693
5694
5695
5696
5697
5698
5700
5701
5702
5703
5706
5738
5739
5740
5741
5742
5743
5744
5745
5746
5747
5748
5749
5750
5751
5752
5753
5754
5755
5756
5757
5758
5759
5760
5761
5762
5763
5764
5765
5766
5767
5768
5769
5770
5771
5772
5773
5774
5775
5776
5777
5778
5779
5780
5781
5782
5783
5784
5785
5786
5787
5788
5789
5790
5791
5792
5793
5794
5795
5796
5797
5798
5799
5800
5801
5802
5803
5804
5805
5806
5807
5808
5809
5810
5811
5812
5813
5814
5815
5816
5817
5818
5819
5820
5821
5822
5823
5824
5825
5826
5827
5828
5829
5830
5831
5832
5833
5834
5835
5836
5837
5838
5839
5840
5841
5842
5843
5844
5845
5846
5847
5848
5849
5850
5851
5852
5853
5854
5855
5856
5857
5858
5859
5860
5861
5862
5863
5864
5865
5866
5867
5868
5869
5870
5871
5872
5873
5874
5875
5876
5877
5878
5879
5880
5881
5882
5883
5884
5885
5886
5887
5888
5889
5890
5891
5892
5893
5894
5895
5896
5897
5898
5899
5900
5901
5902
5903
5904
5905
5906
5907
5908
5909
5910
5911
5912
5913
5914
5915
5916
5917
5918
5919
5920
5921
5922
5923
5924
5925
5926
5927
5928
5929
5930
5931
5932
5933
5934
5935
5936
5937
5938
5939
5940
5941
5942
5943
5944
5945
5946
5947
5948
5949
5950
5951
5952
5953
5954
5955
5956
5957
5958
5959
5960
5961
5962
5963
5964
5965
5966
5967
5968
5969
5970
5971
5972
5973
5974
5975
5976
5977
5978
5979
5980
5981
5982
5983
5984
5985
5986
5987
5988
5989
5990
5991
5992
5993
5994
5995
5996
5997
5998
5999
6000
6001
6002
6004
6005
6007
6012
6014
6025
6027
6030
6031
6036
6037
6038
6039
6040
6046
6057
6062
6063
)


1278
(
441
442
443
444
472
473
474
484
485
486
487
488
489
490
491
492
493
494
495
496
497
498
499
500
501
502
503
504
505
506
507
508
509
510
511
512
513
514
515
516
517
518
519
520
524
525
526
527
528
529
530
531
532
533
534
535
536
537
538
539
540
541
546
547
548
549
550
551
552
553
554
555
556
557
558
559
560
561
562
563
564
565
566
567
568
569
570
571
572
573
574
575
576
577
578
579
580
581
584
585
586
587
588
589
590
591
592
594
595
596
597
598
599
605
606
607
608
609
610
611
612
613
614
615
616
617
618
619
620
621
622
623
624
625
626
627
628
629
630
631
632
633
634
635
636
637
638
639
640
646
647
648
649
650
651
652
653
654
655
656
657
658
664
666
667
670
671
672
673
674
675
676
677
678
679
680
681
682
683
684
685