/*--------------------------------*- C++ -*----------------------------------*\
  =========                 |
  \\      /  F ield         | OpenFOAM: The Open Source CFD Toolbox
   \\    /   O peration     | Website:  https://openfoam.org
    \\  /    A nd           | Version:  8
     \\/     M anipulation  |
\*---------------------------------------------------------------------------*/
/*   Windows 32 and 64 bit porting by blueCAPE: http://www.bluecape.com.pt   *\
|  Based on Windows porting (2.0.x v4) by Symscape: http://www.symscape.com   |
\*---------------------------------------------------------------------------*/
FoamFile
{
    version     2.0;
    format      ascii;
    class       scalarListList;
    location    "constant/vegetation";
    object      solarLoadFineFaces;
}
// * * * * * * * * * * * * * * * * * * * * * * * * * * * * * * * * * * * * * //


5
(

461
(
717.08284
717.08284
717.08284
717.08284
717.08284
0
717.08284
717.08284
717.08284
717.08284
717.08284
717.08284
717.08284
717.08284
717.08284
717.08284
0
0
0
0
0
717.08284
717.08284
717.08284
717.08284
0
0
0
0
0
0
0
0
392.27762
717.08284
717.08284
717.08284
717.08284
600.97279
717.08284
717.08284
717.08284
717.08284
717.08284
717.08284
717.08284
717.08284
717.08284
717.08284
717.08284
717.08284
717.08284
717.08284
717.08284
0
0
0
717.08284
717.08284
717.08284
717.08284
717.08284
717.08284
717.08284
717.08284
717.08284
717.08284
717.08284
717.08284
717.08284
717.08284
717.08284
717.08284
717.08284
717.08284
0
717.08284
717.08284
717.08284
717.08284
0
0
0
0
0
0
0
0
0
0
0
0
0
0
0
0
0
0
0
0
0
0
0
0
0
0
0
0
0
0
0
0
0
717.08284
0
0
0
0
0
0
0
0
0
0
0
0
0
0
0
0
0
0
0
0
0
0
0
0
0
0
0
0
0
0
0
0
0
0
0
0
0
0
0
0
0
0
0
0
0
0
0
0
0
0
0
0
0
0
0
0
0
0
0
0
0
0
0
0
0
0
0
0
0
0
0
0
0
0
0
0
0
0
0
0
0
0
0
0
0
0
0
0
0
0
0
0
0
0
0
0
0
0
0
0
0
0
0
0
0
0
0
0
0
0
0
0
0
0
0
0
0
0
0
0
0
0
0
0
0
0
0
0
0
0
0
0
0
0
0
0
0
0
0
0
0
0
0
0
0
0
0
0
0
0
0
0
0
0
0
0
0
0
0
0
0
0
0
0
0
0
0
0
0
0
0
0
0
0
0
0
0
0
0
0
0
0
0
0
0
0
0
0
0
0
0
0
0
0
0
0
0
0
0
0
0
0
0
0
0
48.395723
0
0
115.00628
172.55896
249.15439
126.28721
0
0
0
0
0
99.713241
0
246.84842
99.745105
359.58612
39.452838
108.26303
32.65922
133.77756
0
0
0
0
44.295444
33.522914
0.30043467
0
0
0
0
0
0
119.10817
184.36565
0
196.66594
111.91769
276.7665
294.51695
308.17248
0
0
0
19.549112
0
47.175874
0
35.070258
0
0
0
0
0
0
0
38.74304
0
0
37.488814
0
0
94.806935
69.255144
46.386531
281.04044
281.02445
136.598
266.16874
291.66805
289.28234
136.86418
135.86285
148.85526
0
203.69808
246.45856
187.62474
231.13524
360.58312
218.99271
391.44366
469.09731
506.58465
617.30859
561.13487
594.71878
589.25409
575.61001
462.39484
249.17267
310.65632
409.23981
452.93635
344.26765
333.42786
425.17205
336.78178
542.73762
398.83786
0
0
0
0
21.34046
0
0
0
0
125.90476
0
0
0
0
0
0
0
14.180441
0
0
0
174.88873
131.56583
304.15145
6.2409221
159.0764
182.16084
1.7709729
1.2188701
58.994009
184.75488
159.37629
351.01952
277.94087
273.26299
535.23953
469.59832
421.49314
416.06372
373.47271
504.39998
)


461
(
585.76158
0
585.76158
0
0
0
0
585.76158
0
0
0
0
0
0
0
0
0
0
0
0
0
585.76158
585.76158
585.76158
585.76158
0
0
0
0
0
0
0
0
585.76158
585.76158
585.76158
585.76158
585.76158
585.76158
585.76158
585.76158
585.76158
585.76158
585.76158
585.76158
0
0
0
0
0
0
0
0
580.80165
0
0
0
0
0
0
0
0
0
0
0
0
0
0
0
0
0
0
0
0
0
0
0
0
585.76158
585.76158
0
0
0
0
0
0
0
0
0
0
0
0
0
0
0
0
0
0
0
0
0
0
0
0
0
0
0
0
0
0
0
0
0
585.76158
0
0
0
0
0
0
0
0
0
0
0
0
0
0
0
0
0
0
0
0
0
0
0
0
0
0
0
0
0
0
0
0
0
0
0
0
0
0
0
0
0
0
0
0
0
0
0
0
0
0
0
0
0
0
0
0
0
0
0
0
0
0
0
0
0
0
0
0
0
0
0
0
0
0
0
0
0
0
0
0
0
0
0
0
0
0
0
0
0
0
0
0
0
0
0
0
0
0
0
0
0
0
0
0
0
0
0
0
0
0
0
0
0
0
0
0
0
0
0
0
0
0
0
0
0
0
0
0
0
0
0
0
0
0
0
0
0
0
0
0
0
0
0
0
0
0
0
0
0
0
0
0
0
0
0
0
0
0
0
0
0
0
0
0
0
0
0
0
0
0
0
0
0
0
0
0
0
0
0
0
0
0
0
0
0
0
0
0
0
0
0
0
0
0
0
0
0
0
0
0
0
0
0
0
0
188.5119
4.8980262
0
254.8979
284.84205
358.44568
264.42944
65.523163
65.523903
0
0
143.27804
219.00482
133.35152
339.13938
219.02906
427.31638
192.46776
249.82213
187.73769
270.71286
32.898638
41.980911
0
74.748083
185.02018
159.16896
133.53868
38.7128
0
0
43.600309
7.5126668
39.8871
258.16601
310.44766
0
302.87262
221.01191
378.48945
394.9035
405.05753
59.685902
2.9220717
10.481407
188.43062
42.018292
70.024559
0
65.682542
0
0
0
0
0
0
0
83.348278
83.856261
56.225769
60.5647
127.57371
144.2798
215.15703
210.99978
191.40013
340.31832
340.19025
222.14779
328.18598
308.32552
305.99466
222.39405
221.68609
194.61681
73.318194
319.96489
338.87892
307.74389
326.6401
419.62381
318.56914
456.31477
517.98045
539.67864
607.96266
557.20485
568.82001
590.53595
555.98421
463.43968
357.9906
406.89482
469.45625
507.32006
427.59937
419.82844
470.01379
423.42394
551.88103
450.67874
0
0
20.872065
14.608577
50.906878
52.207521
0
0
25.543358
231.72945
134.70727
0
0
0
0
0
0
62.206498
0
0
65.736635
212.50613
154.28471
322.15384
17.493437
203.11875
195.67408
59.682168
104.89926
202.23951
305.25233
240.30023
401.2719
326.24888
302.97112
546.01905
460.61252
432.16794
413.24878
413.31384
539.63525
)


461
(
536.2201
0
536.2201
0
0
0
0
536.2201
0
0
0
0
0
0
0
0
0
0
0
0
0
0
0
0
0
0
0
0
0
0
0
0
0
0
0
0
0
0
0
0
0
0
536.2201
536.2201
536.2201
0
0
0
0
0
0
0
0
0
0
0
0
0
0
0
0
0
0
0
0
0
0
0
0
0
0
0
0
0
0
0
0
0
0
0
0
0
0
0
0
0
0
0
0
0
0
0
0
0
0
0
0
0
0
0
0
0
0
0
0
0
0
0
0
0
0
0
0
536.2201
0
0
0
0
0
0
0
0
0
0
0
0
0
0
0
0
0
0
0
0
0
0
0
0
0
0
0
0
0
0
0
0
0
0
0
0
0
0
0
0
0
0
0
0
0
0
0
0
0
0
0
0
0
0
0
0
0
0
0
0
0
0
0
0
0
0
0
0
0
0
0
0
0
0
0
0
0
0
0
0
0
0
0
0
0
0
0
0
0
0
0
0
0
0
0
0
0
0
0
0
0
0
0
0
0
0
0
0
0
0
0
0
0
0
0
0
0
0
0
0
0
0
0
0
0
0
0
0
0
0
0
0
0
0
0
0
0
0
0
0
0
0
0
0
0
0
0
0
0
0
0
0
0
0
0
0
0
0
0
0
0
0
0
0
0
0
0
0
0
0
0
0
0
0
0
0
0
0
0
0
0
0
0
0
0
0
0
0
0
0
0
0
0
0
0
0
0
0
0
0
0
0
0
0
0
337.89561
170.89913
180.43541
407.71969
420.42949
495.95638
414.34416
225.19325
225.19438
0
0
305.67659
341.80385
296.311
451.71246
341.8238
528.48913
346.85874
403.32622
343.9233
420.58164
101.45114
74.147114
69.341031
5.9251162
334.58911
294.86611
272.99441
198.63523
0
10.760379
203.65656
155.32007
200.02376
410.61356
454.76742
36.522218
435.11335
348.86976
511.75999
526.17665
534.42964
220.01275
155.57367
131.06847
341.64479
196.09435
219.81324
42.84701
186.09877
0
5.0051235
0
0
0
0
0
230.99475
211.84073
203.72185
180.14717
290.78933
302.20983
338.49034
355.54012
336.52181
421.37438
421.12439
312.98985
410.25165
346.05138
343.48762
313.24776
312.7285
245.29529
135.27884
454.22515
451.54291
444.16783
440.62526
523.14457
446.82469
566.69924
618.0205
624.99582
664.27728
609.00614
612.39796
657.08089
592.9397
506.52189
495.22468
535.90534
576.96291
610.94841
544.9758
539.11454
555.18044
543.72554
615.31516
539.7581
0
0
18.603651
14.603411
129.38998
98.135547
70.674029
0
68.013491
357.88088
281.60184
0
47.688942
44.416559
0
0
0
139.03059
0
0
63.513133
257.85701
179.37241
362.78899
17.047851
253.22714
217.22661
105.92143
202.09235
347.07656
441.67289
346.77131
496.20372
413.15761
371.92965
618.72589
510.40576
479.97666
446.28432
485.72177
627.32745
)


461
(
411.8157
0
411.8157
0
0
0
0
411.8157
0
0
0
0
0
0
0
411.8157
411.8157
0
0
0
0
0
0
0
0
0
0
0
0
0
0
0
0
0
0
0
0
0
0
0
0
0
411.8157
411.8157
411.8157
0
0
0
0
0
0
0
0
0
0
0
411.8157
411.8157
411.8157
0
0
0
0
0
0
0
0
0
0
0
0
0
0
0
0
0
0
0
0
0
0
0
0
0
0
0
0
0
0
0
0
0
0
0
0
0
0
0
0
0
0
0
0
0
0
0
0
0
0
0
0
0
0
411.8157
0
0
0
0
0
0
0
0
0
0
0
0
0
0
0
0
0
0
0
0
0
0
0
0
0
0
0
0
0
0
0
0
0
0
0
0
0
0
0
0
0
0
0
0
0
0
0
0
0
0
0
0
0
0
0
0
0
0
0
0
0
0
0
0
0
0
0
0
0
0
0
0
0
0
0
0
0
0
0
0
0
0
0
0
0
0
0
0
0
0
0
0
0
0
0
0
0
0
0
0
0
0
0
0
0
0
0
0
0
0
0
0
0
0
0
0
0
0
0
0
0
0
0
0
0
0
0
0
0
0
0
0
0
0
0
0
0
0
0
0
0
0
0
0
0
0
0
0
0
0
0
0
0
0
0
0
0
0
0
0
0
0
0
0
0
0
0
0
0
0
0
0
0
0
0
0
0
0
0
0
0
0
0
0
0
0
0
0
0
0
0
0
0
0
0
0
0
0
0
0
0
0
0
0
0
434.96442
0
0
494.30097
492.35935
555.24213
494.90318
0
0
0
0
0
0
0
486.40765
0
541.55713
0
375.27409
0
0
0
0
0
0
432.35222
387.43749
372.25237
0
0
0
0
0
0
496.41395
524.02821
0
501.72353
425.98443
564.90128
572.8123
578.10723
0
0
0
337.08898
0
0
0
0
0
0
0
0
0
0
0
0
0
0
0
0
0
0
0
0
428.17333
427.83575
0
419.58225
320.64108
318.21014
0
0
173.14942
0
511.68231
486.3547
505.26947
0
549.49928
508.04698
590.97432
622.03141
610.96547
617.74025
562.8183
567.22518
623.95703
534.17915
464.5059
554.5357
579.02771
596.782
619.329
573.30596
570.17951
548.60357
575.4615
579.91185
539.04942
0
0
0
0
0
0
0
0
0
432.04285
385.76881
0
0
0
0
0
0
0
0
0
0
252.39407
165.52531
337.86977
0
177.51993
136.40249
0
0
0
0
405.11848
519.47668
442.878
391.61376
599.65138
489.20329
446.05932
402.53094
475.25128
615.67675
)


461
(
284.42858
0
284.42858
0
0
284.42858
284.42858
284.42858
0
0
0
0
0
0
284.42858
284.42858
284.42858
0
0
0
0
0
0
0
284.42858
0
0
0
0
0
0
0
0
0
0
0
0
0
0
0
0
0
284.42858
284.42858
284.42858
0
0
0
0
0
0
0
0
0
284.42858
284.42858
284.42858
284.42858
284.42858
284.42858
0
0
0
0
0
0
0
0
0
0
0
0
0
0
0
0
0
0
0
0
0
0
0
0
0
0
0
0
0
0
0
0
0
0
0
0
0
0
0
0
0
0
0
0
0
0
0
0
0
0
0
0
0
284.42858
0
0
0
0
0
0
0
0
0
0
0
0
0
0
0
0
0
0
0
0
0
0
0
0
0
0
0
0
0
0
0
0
0
0
0
0
0
0
0
0
0
0
0
0
0
0
0
0
0
0
0
0
0
0
0
0
0
0
0
0
0
0
0
0
0
0
0
0
0
0
0
0
0
0
0
0
0
0
0
0
0
0
0
0
0
0
0
0
0
0
0
0
0
0
0
0
0
0
0
0
0
0
0
0
0
0
0
0
0
0
0
0
0
0
0
0
0
0
0
0
0
0
0
0
0
0
0
0
0
0
0
0
0
0
0
0
0
0
0
0
0
0
0
0
0
0
0
0
0
0
0
0
0
0
0
0
0
0
0
0
0
0
0
0
0
0
0
0
0
0
0
0
0
0
0
0
0
0
0
0
0
0
0
0
0
0
0
0
0
0
0
0
0
0
0
0
0
0
0
0
0
0
0
0
0
501.85004
0
0
410.52485
534.61749
423.38482
0
441.96854
441.9697
0
0
0
0
0
0
0
0
0
408.70576
0
0
362.147
332.01997
339.04149
275.87148
500.00391
454.93351
446.22462
0
0
0
0
0
0
411.5241
420.30108
241.43805
538.90822
478.04535
584.12276
440.63874
586.09935
439.28299
383.56594
367.93571
508.86569
415.98215
0
0
0
0
0
0
0
0
0
0
0
0
0
0
0
0
0
0
0
0
0
0
0
0
0
0
0
0
0
0
0
0
0
549.29748
540.35101
584.74283
593.84345
564.7513
543.7636
488.55344
502.63451
563.85581
449.64931
396.31629
579.61126
586.4964
586.18288
594.99409
0
565.36216
509.43805
571.33036
514.78014
505.34852
0
0
0
0
0
0
339.8347
0
0
481.22762
462.45417
0
0
0
0
0
0
0
0
0
0
0
0
0
0
0
0
0
0
0
0
443.14801
519.2008
453.87623
397.42154
555.4467
452.33791
385.54857
334.95839
434.50329
571.73997
)

)


// ************************************************************************* //
