/*--------------------------------*- C++ -*----------------------------------*\
  =========                 |
  \\      /  F ield         | OpenFOAM: The Open Source CFD Toolbox
   \\    /   O peration     | Website:  https://openfoam.org
    \\  /    A nd           | Version:  8
     \\/     M anipulation  |
\*---------------------------------------------------------------------------*/
/*   Windows 32 and 64 bit porting by blueCAPE: http://www.bluecape.com.pt   *\
|  Based on Windows porting (2.0.x v4) by Symscape: http://www.symscape.com   |
\*---------------------------------------------------------------------------*/
FoamFile
{
    version     2.0;
    format      ascii;
    class       scalarListList;
    location    "constant/air";
    object      divqrsw;
}
// * * * * * * * * * * * * * * * * * * * * * * * * * * * * * * * * * * * * * //


5
(

6092
(
0
0
0
0
0
0
0
0
0
0
0
0
0
0
0
0
0
0
0
0
0
-95.046525
0
0
0
0
-144.25105
0
0
0
0
0
0
-155.80699
0
-100.41552
0
0
0
0
0
0
0
0
0
0
0
0
0
0
0
0
0
0
0
0
0
0
0
0
0
0
0
0
0
0
0
0
0
0
0
0
0
0
0
0
0
-107.63302
0
0
0
-120.71775
0
0
-166.10405
0
0
-155.05236
-44.868513
0
0
0
-79.239664
0
0
-28.712779
0
0
0
0
0
0
0
0
0
0
0
0
0
0
0
0
0
0
0
0
0
0
0
-54.178638
0
0
0
0
0
0
0
0
0
0
0
0
0
0
0
0
0
0
-132.45399
0
-94.655388
-52.446919
0
0
-169.78688
-62.096697
0
0
-162.35056
-41.900989
-9.5025031
-42.61595
0
0
0
0
0
0
-59.827809
-173.73398
-52.285911
0
0
0
0
0
-154.91133
0
0
-82.820916
-43.003344
0
0
0
-149.16505
0
-157.29784
-132.74485
0
0
-201.16922
-97.54159
0
-109.02346
0
0
0
0
0
0
0
-132.22374
-70.911513
-26.189178
-121.29731
0
0
0
0
0
-189.55274
-142.65699
-87.505324
0
0
-146.62167
-99.836589
0
0
-30.660748
-123.68899
0
-169.1462
0
0
-159.94295
-181.8935
0
0
0
-146.02355
0
-130.47112
0
0
-184.45844
0
0
0
0
-167.28077
0
0
0
0
0
0
0
0
0
0
0
0
0
0
0
0
-38.855159
0
0
0
0
0
0
0
0
0
0
0
0
0
-54.761097
0
0
0
0
0
0
0
0
0
0
0
0
0
0
0
0
0
0
0
0
0
0
0
0
0
-62.801922
0
0
-70.632134
0
-58.302664
0
0
0
0
-112.19019
-86.649053
-67.85934
-33.801352
0
0
0
0
0
0
0
0
0
0
0
0
0
0
0
0
0
0
0
0
0
0
0
0
0
0
0
0
0
0
0
0
0
-72.970211
0
0
0
0
0
0
0
0
0
0
0
0
0
-92.607386
-90.413499
0
0
0
0
0
0
0
0
0
0
0
0
0
0
0
0
0
0
0
0
0
0
0
0
0
0
0
0
0
0
0
0
0
0
0
0
0
0
0
0
0
0
0
0
0
0
0
0
0
0
0
0
0
0
0
0
0
0
0
0
0
0
0
0
0
0
0
0
0
0
0
0
0
0
0
0
0
0
0
-131.97105
0
0
0
0
0
0
0
0
0
0
0
0
0
0
0
-130.96138
0
0
0
0
0
0
0
0
0
0
0
0
0
0
0
0
0
0
0
0
0
0
0
0
0
0
0
0
0
0
0
-162.34543
0
-103.81186
0
0
0
0
0
0
0
0
0
0
0
0
0
0
0
-101.67589
0
0
-165.91071
0
-117.26122
0
0
0
0
0
0
0
0
0
0
-54.345311
-123.56119
-43.324627
-168.09836
0
0
0
0
0
0
0
0
0
0
0
-72.999258
0
0
0
0
0
0
0
0
0
0
0
0
0
0
0
0
0
0
0
-84.992658
-129.52914
0
0
-68.082345
0
0
0
0
0
0
0
0
-53.122738
-27.461698
-18.354989
0
0
0
0
0
0
0
0
0
0
0
0
0
0
0
0
0
0
0
0
0
0
0
0
0
0
0
0
0
0
0
0
0
0
0
0
0
0
0
0
0
0
0
0
0
0
-69.531341
-90.35149
-86.817907
-83.017501
-80.277255
-72.563857
-81.220343
0
0
0
0
0
0
0
-91.0904
-117.89157
-132.39993
-131.86841
-118.76359
-101.07936
-106.75563
0
0
0
0
0
0
0
-102.03831
-127.37244
-148.17129
-144.75605
-133.69497
-110.93879
-120.79599
0
-83.618627
0
0
0
0
0
0
0
0
0
0
0
0
0
0
0
0
0
0
0
0
0
0
0
0
0
0
0
0
0
0
0
0
0
0
0
0
0
0
0
0
0
0
0
0
0
0
0
0
0
0
0
0
0
0
0
0
0
0
0
0
0
0
0
0
0
0
0
0
0
0
0
0
0
0
0
0
0
0
0
0
0
0
-123.07924
-102.53229
-105.37932
-109.93006
-117.01902
-94.401338
-102.13489
-124.07046
-94.445233
-88.781845
-97.343728
-92.25954
-130.64854
-109.09215
0
-109.84029
-161.96793
-142.77627
-170.24256
-177.18107
-181.83837
-146.07199
-160.21612
-144.08884
-133.7893
-143.41211
-166.33518
-154.99888
-124.50133
-152.90593
-56.869422
-67.507705
-54.385922
-24.978377
-95.028621
-41.388096
-26.882195
-76.740812
-115.2195
-48.848964
-22.759933
-43.847027
0
0
0
0
0
0
0
0
-62.112725
-70.782976
0
-97.617397
0
-69.880367
-78.539012
-113.3948
-48.374712
-40.797703
-20.24056
-16.741671
0
-34.896573
-19.111992
0
-42.85943
-49.135367
-129.84618
-60.116364
-86.04498
-63.981349
-31.106349
-40.823134
0
0
0
0
0
0
0
0
-26.111325
-10.261108
-21.251884
0
-36.722224
-26.825398
-47.373986
-144.87072
0
0
0
-100.7383
0
-29.669564
-52.538163
0
-13.042933
-46.938279
-26.910686
0
0
0
0
0
0
0
0
0
0
0
0
0
0
0
0
0
0
0
0
0
0
0
0
0
0
0
0
0
0
0
0
0
0
0
0
0
-50.420053
-48.173914
-48.530507
0
-45.240348
0
0
-134.30374
-83.852424
-93.812136
-172.18266
-124.68227
-78.306972
0
0
0
-78.412497
0
-72.799054
0
-126.11484
-68.067481
-89.558886
-96.147942
-64.087892
-106.60438
-73.137687
-92.679442
-61.552411
-42.943161
-92.917728
-88.354655
-81.236086
-64.622364
-79.991155
0
0
0
-68.93968
0
0
-81.012492
0
-38.659407
0
-66.296249
-64.468158
0
-94.504761
-179.56048
-112.0845
-81.018437
-117.38225
-89.677677
-84.848201
-149.51273
-84.984017
-93.146784
-69.809936
-105.78338
-100.00875
-122.53735
-121.17835
-125.1062
0
0
-102.49993
-132.17384
-85.93435
0
-104.6082
-106.90498
-150.74161
-114.90425
-95.334493
-137.84379
-124.47112
-124.62974
-12.574493
-25.866078
-52.633083
-31.385875
-39.2836
-45.24144
-51.562984
-29.016068
-38.237235
-52.741478
-31.658471
-34.780554
-11.745744
-20.593147
-18.609559
-33.13535
-24.062643
-23.170638
0
-65.403681
-26.309824
-22.481644
-22.949097
0
0
0
0
0
0
0
0
0
0
0
0
0
0
0
0
0
0
0
0
0
0
0
0
-69.235733
0
0
0
0
0
0
0
0
0
0
0
0
0
-17.895196
0
0
0
0
0
-75.231832
-106.57
-63.671524
-88.373425
-66.775196
-90.7259
-69.266432
-128.92821
-129.56725
0
-83.242897
-36.598942
-92.697132
-76.749094
-107.59697
0
0
0
0
0
0
0
0
0
0
0
0
-86.905425
0
0
0
0
0
0
0
0
0
0
-84.685637
0
0
-92.863478
0
0
0
-30.063302
0
0
-57.981623
0
0
0
-111.56804
0
-79.907388
-86.243196
-107.45151
0
0
0
0
0
0
-61.416874
0
0
-37.668825
0
0
0
-23.231363
0
-55.207457
-49.487161
0
-22.061484
-53.58708
-59.102948
-29.242065
-19.308834
-49.172779
-32.118276
-22.900559
-51.764453
-27.022533
-13.670512
0
0
0
0
0
0
0
0
0
-27.955701
0
-52.904171
0
0
-14.369734
0
-18.246618
0
-21.560633
0
0
0
-163.97104
-117.35121
-156.81875
-196.98646
-157.21617
-99.229833
-108.64494
0
-98.809899
-151.68801
0
0
-192.28107
-128.55299
-162.78871
-132.09973
-169.22401
-152.00342
-158.81941
-178.00055
-176.97653
-135.98893
-121.67966
-150.59585
-150.32538
-150.5294
-170.44843
-145.34743
0
0
0
0
-121.28676
-79.21463
-164.54985
0
-113.89842
0
0
-124.10797
-185.14035
-169.33849
-204.66744
-166.52134
-103.41142
-156.18556
-160.85182
-111.20992
-69.56695
-147.04897
-119.75972
-103.072
-166.55816
-162.45202
0
0
-119.7147
-154.4778
0
-91.967053
-148.4826
-71.895177
-67.389185
0
-86.207618
0
0
0
0
0
0
0
0
0
0
0
0
0
0
0
0
0
0
0
0
0
0
-76.359622
0
0
0
0
0
0
-163.03928
0
0
0
0
0
0
-64.868873
0
0
-53.460908
-70.447953
0
-62.185082
-38.1246
0
-76.245412
-58.470736
-33.725746
-33.787393
-61.560459
-22.856355
-96.970221
-90.209378
-67.584006
-46.48308
-86.818456
-55.628245
-70.500051
-37.666318
-74.350149
-42.546029
-54.511931
-33.998706
-45.661762
-59.572495
-24.883328
-11.226715
-20.321344
-16.487635
-30.637422
-27.19586
-30.853911
-31.908607
-50.155688
-14.630879
-25.84355
-57.149772
-20.948484
0
-99.516321
-161.29279
-150.08446
-133.42402
-158.57857
0
0
0
0
0
0
-102.02663
0
0
0
0
0
-119.83092
0
0
0
0
0
0
0
0
0
0
-78.270282
0
0
0
-97.357621
0
0
-173.16568
0
0
-142.21161
0
0
0
-162.69969
-93.216197
-81.617145
-143.99986
-143.51245
0
-108.77748
-158.97158
-104.2078
-119.21233
-77.994505
0
-97.057036
0
-67.052294
0
0
-163.37142
0
-80.65709
0
-63.561014
-36.524082
-66.667249
0
-115.45425
-95.981951
0
-90.059229
-117.49107
-157.60476
-76.297912
-82.132311
-106.04503
-108.65258
-66.090008
-149.31629
-76.239031
-70.462833
0
0
0
0
0
0
0
-61.324187
0
-100.88912
0
0
-155.38035
-54.175461
-58.31048
-34.7232
-57.960359
0
-58.950921
-61.808578
0
0
-182.62914
0
0
0
0
0
0
0
0
0
-198.05811
0
0
0
0
0
0
0
0
0
0
0
0
0
0
0
0
0
0
0
0
0
0
0
0
0
0
0
0
0
0
0
0
0
0
-185.14452
-85.036817
0
0
0
0
0
0
0
0
0
0
0
0
0
0
0
0
0
-197.65952
0
-82.305855
-95.288702
0
-102.4846
0
0
0
0
0
0
0
0
0
0
0
0
0
0
0
0
0
0
0
0
0
0
0
0
0
0
0
0
0
0
0
0
0
0
0
0
0
0
0
0
0
0
0
0
0
0
0
0
0
0
0
0
0
0
0
0
0
0
0
0
0
0
-64.086184
-49.854744
0
0
-68.595675
0
0
-60.243567
0
0
0
-71.265294
-49.753614
0
-67.075936
-55.199874
0
0
0
0
0
0
0
0
0
0
0
0
0
0
0
0
0
0
0
0
0
0
0
0
0
0
0
0
0
0
0
0
0
0
0
0
0
0
0
0
0
0
0
0
-42.70091
0
0
0
-44.795855
0
-56.536837
-53.491173
-57.251689
-74.97151
-49.201909
-69.122217
-60.526825
0
0
0
0
0
0
0
0
0
0
0
0
0
0
0
-55.521775
-66.136198
-57.585576
-54.245259
-55.506035
0
0
-52.696562
-49.790371
-61.874076
0
-51.690689
-53.702826
0
0
0
0
0
0
0
0
-48.984437
0
0
0
-46.745042
0
-62.342623
-81.914651
-40.735409
0
0
-69.243938
-73.434264
-82.219728
-120.21151
-98.557636
-89.872032
-106.98177
-76.76483
-95.583326
-75.650602
-107.8447
-79.056319
-68.174457
-97.920595
-63.590305
-82.275042
-69.585069
-56.840049
-81.04742
-73.017216
-88.843019
-64.563884
-59.611993
-56.411685
0
-36.146691
-61.724438
0
-53.954741
-65.094453
0
-51.989084
0
0
0
0
-55.263646
0
0
0
0
0
0
0
0
0
0
0
0
0
0
0
0
0
0
0
0
0
0
0
-76.115587
0
0
0
0
0
0
0
0
0
0
0
0
0
0
0
0
0
0
0
0
0
0
0
0
0
0
-88.458495
0
0
-75.453005
0
-84.061585
-87.739244
-121.76669
-91.958992
0
-114.81014
0
-97.79821
-80.268458
-113.9117
-90.028322
-68.693118
-108.1936
-86.018439
0
0
0
0
0
-100.09344
0
0
0
0
0
0
0
0
0
0
0
0
0
0
0
0
0
0
0
0
0
0
0
0
0
0
0
0
0
0
0
0
0
0
0
0
0
0
0
0
0
0
0
0
-95.724978
-130.81279
-128.79614
-115.87058
-110.48985
-119.97263
-109.41121
0
0
0
0
0
0
0
0
0
-102.1999
0
0
-89.850701
0
0
0
0
0
0
0
0
0
0
0
0
0
0
0
-112.31062
-123.89525
-134.84525
-117.68899
-109.7816
-131.08142
-119.20486
-84.9407
-78.057221
0
0
-87.653089
0
0
0
0
0
0
0
0
0
0
0
0
0
0
0
0
-93.271398
-104.29153
0
0
-96.000756
0
0
0
0
0
0
0
0
0
0
0
0
0
0
0
0
0
0
0
0
0
-85.704666
0
0
0
0
0
0
0
0
0
0
0
0
0
0
0
0
0
0
0
0
0
0
-111.90498
-142.42009
-159.62346
-147.39907
-124.58585
-139.56235
-131.99817
0
0
0
-119.24465
-104.44638
0
-102.36896
-92.057371
-83.542243
0
-131.67597
0
-105.85424
-119.96195
0
0
0
0
0
0
0
0
0
0
0
0
0
0
-115.05743
-100.89528
0
-67.881737
-103.50099
0
-113.98062
-130.4228
-137.07976
0
-110.58189
-150.40471
-114.12516
0
0
0
0
0
0
0
0
0
0
0
0
0
0
0
-156.2697
-169.13683
-163.24159
-161.00444
-168.75073
-153.96994
-159.95561
-113.03336
-71.954856
0
-120.31088
0
-113.40651
-115.75026
-138.51742
-114.51771
0
-154.11229
-152.60669
-143.78485
0
0
0
0
0
0
0
0
0
0
0
0
0
0
0
0
0
0
0
0
0
0
-103.32477
-94.571159
-50.462047
-65.687949
-87.908043
-109.72945
-61.810815
-136.35214
-131.89587
-107.72852
-135.11932
-143.82145
-116.27325
-126.64628
-97.522904
-46.977343
-75.870723
-53.993742
-81.908377
-58.32287
-90.547782
-158.19052
-166.83726
-166.78856
-161.92208
-160.74767
-114.54695
-72.205402
-116.38406
-70.931437
-40.461492
-49.153371
-46.946916
-35.9451
-51.383612
-38.278072
-38.21921
0
0
0
0
0
0
0
-14.578773
-12.296119
-10.753369
0
-15.208698
-11.693381
0
0
0
0
0
0
0
0
-27.902698
-38.108117
0
-21.82137
-41.294876
-28.581033
0
-114.46912
-142.26635
-125.69617
-147.4783
-155.28877
-160.51396
-140.79666
0
0
0
0
0
0
0
-106.32422
-87.189265
-97.455034
-92.501938
-81.690393
-95.092547
-79.798221
-62.294684
-52.563699
-49.890075
-62.703817
-63.072068
-60.075682
-51.532836
0
0
0
0
0
0
0
-155.64257
-173.02341
-158.47028
-166.90616
-159.09919
-154.70724
-169.66257
0
0
0
0
0
0
0
0
0
0
0
0
0
0
-149.4845
-155.6092
-173.2172
-139.73337
-161.56872
-139.46176
-153.08179
-16.205508
-10.159359
-12.84201
-11.656404
-15.72302
-13.395712
-12.571333
-33.822611
-46.725582
-39.414832
-34.094381
-36.124542
-42.834308
-32.068504
0
0
0
0
0
0
0
0
0
0
0
0
0
0
0
-9.8505104
0
0
0
0
0
-63.825955
-59.369698
-48.280314
-62.36338
-57.880817
-73.045921
-53.096972
0
0
0
0
0
0
0
0
0
0
0
0
0
0
-120.32747
-150.00791
-150.94858
-129.09571
-144.90951
-129.69181
-121.21002
0
0
0
0
0
-17.319355
0
-77.628602
-71.469582
-68.892463
-57.548323
-70.749126
-68.239184
-59.978905
-32.845018
-43.354794
-40.399014
-34.36344
-41.424507
-34.622729
-32.459412
0
0
0
0
0
0
0
-8.701507
0
-10.319387
0
-10.829762
-8.2422453
0
-121.59124
-150.00303
-128.39922
-146.56809
-178.16318
-167.97641
-146.09223
0
0
0
0
0
0
0
-166.41101
-168.17053
-180.43714
-178.35276
-148.47482
-159.00999
-162.81257
0
0
0
0
0
0
0
0
0
0
0
0
0
0
-168.39588
-203.45967
-179.95386
-175.87186
-166.89197
-177.71799
-177.71863
0
0
0
0
0
0
0
-98.942153
-110.53402
-116.33461
-95.541361
-99.410266
-113.39185
-97.03143
0
0
0
0
0
0
0
0
0
0
0
0
0
0
0
-48.939811
0
0
-56.451594
-61.099725
0
0
-44.482982
-44.192938
-42.428566
0
-43.816601
0
-117.68047
-120.72527
-107.53761
-94.838151
-119.59206
-102.72828
-109.33952
-30.767994
-26.341423
-34.683221
-22.471116
-29.190878
-33.786859
-24.187413
-159.67939
-131.72016
-129.12227
-132.65989
-155.248
-140.36151
-135.06153
0
0
0
0
0
0
0
0
0
0
0
0
0
0
0
0
0
0
0
0
0
-134.99369
-179.25616
-162.98714
-150.85332
-162.1159
-153.90774
-126.99593
-127.65495
-152.94865
-137.49526
-119.90733
-129.84106
-139.06877
-111.92871
0
0
0
0
0
0
0
0
0
0
0
0
-45.36047
0
-145.74429
-134.76074
-129.70732
-125.95292
-137.07355
-142.99081
-125.20606
0
0
0
0
0
0
0
-41.17315
-28.960031
-41.019777
0
-48.224154
-37.256547
0
-100.59367
-103.75438
0
0
-150.67392
-125.93699
-131.49377
-140.90861
-178.57479
-160.8465
-149.26119
-157.7226
-177.00975
-127.55952
-134.46686
-148.4546
-177.1475
-131.54898
-149.88484
-161.81625
-117.71277
-188.31361
-189.64801
-173.7957
-198.19859
-203.53466
-182.2963
-184.41673
0
-130.65828
-127.87842
-115.77744
-98.693406
-103.43747
-97.157459
-111.36225
-107.85643
0
-129.94686
-160.22288
-138.21229
-136.90826
-151.42795
-190.00289
-155.05494
-156.08282
-164.17517
-134.58664
-167.13845
-80.846241
-133.04846
-138.64192
-130.05028
-105.91544
-111.1637
-100.91652
0
0
0
0
0
0
0
0
0
0
0
0
0
0
0
0
0
0
0
0
0
0
0
0
0
0
0
0
0
0
0
0
0
0
0
0
-66.236294
0
-66.457774
0
0
0
0
0
0
0
0
0
0
0
0
0
0
0
0
0
0
0
0
0
0
0
0
0
0
0
0
0
0
0
0
0
0
0
0
0
0
0
0
0
0
0
0
0
0
0
0
0
-100.74598
-78.97633
0
0
-115.58939
-102.49289
-106.96338
-92.163187
0
0
0
0
0
0
0
0
0
0
0
0
0
0
0
0
0
0
-85.816251
0
0
-72.543682
0
0
-35.04555
-30.49354
-26.106945
0
-30.198391
0
-47.211086
-44.117561
-38.339257
-32.561535
-44.188009
-39.748814
-36.839318
-27.125473
-35.616708
-26.138481
-23.766507
-32.736509
-30.070343
-22.008673
-22.041197
-20.306847
-21.76508
-14.470265
-25.779045
-18.305656
-16.64127
0
0
0
0
0
0
0
0
0
0
0
0
0
0
0
0
0
0
0
0
0
0
0
0
0
0
0
0
0
0
0
0
0
0
0
0
0
0
0
0
0
0
0
0
0
0
0
0
0
-49.684892
-71.741703
-50.844474
-44.625691
-56.468718
-62.030916
-40.803346
-47.119647
-58.559229
-69.405369
-51.631017
-53.477326
-60.620884
-45.199056
-33.80976
-30.300145
-28.934433
-24.741253
-29.306344
-32.737179
-30.933704
-58.047556
-84.2788
-76.877897
-82.759407
-66.785122
-72.617378
-67.038101
-42.349266
-44.042907
-47.209229
-34.917758
-51.629283
-36.344576
-39.719546
-38.461449
-33.810894
-38.481758
-26.051532
-42.702411
-31.806443
-34.964663
0
0
0
-99.905691
0
0
-98.279788
0
0
0
0
0
0
0
0
0
-109.56175
-86.193393
-132.49167
0
-117.16872
0
-43.714608
-53.110009
-47.706266
0
0
-56.35551
-36.371842
-37.78087
-29.877925
-30.877139
0
-29.546815
-40.051933
0
-48.18958
-45.659716
-58.602961
-37.555256
-59.203401
-37.942569
-48.778499
0
0
0
0
0
-26.281444
0
0
0
0
0
0
0
0
0
0
0
0
0
0
0
0
0
0
0
0
0
0
0
0
-80.675818
-47.806769
-62.69428
0
0
0
0
-72.171878
-55.932628
-57.461611
0
0
0
0
0
0
0
0
0
0
0
0
0
0
0
0
0
0
-90.9936
-79.694528
-74.584763
-72.132543
0
0
0
0
-41.491354
0
-46.526727
0
0
-85.388649
-71.271191
-88.544566
-61.831005
-75.523863
-93.00629
-70.220094
-100.35224
-102.03998
-98.967348
-131.96196
-87.724072
-112.82452
-115.64224
-76.892507
-52.557846
-55.21243
-66.288666
-61.67304
-68.45563
-72.009126
-24.149223
-39.088241
-31.983956
0
-31.196199
-29.71621
0
-19.989313
-16.457653
-24.423692
-19.87941
-24.624969
-20.072301
-16.099401
-17.974031
-12.826662
-22.797475
0
-22.391012
-18.470087
0
0
0
0
0
0
0
0
-24.421592
-36.547712
-29.399093
-28.456056
-30.238212
-29.405433
-24.068587
-19.289254
-25.020763
-19.566117
0
-24.913279
0
-15.127763
0
0
0
0
-20.704788
0
0
-55.339799
-55.930734
-49.143982
-37.597144
-46.10408
-63.598357
-45.414603
-81.076909
-113.88266
-112.88242
-106.37698
-92.536026
-96.310788
-95.93806
-58.550681
-69.421938
-62.002685
-49.667578
-51.467956
-71.92588
-56.193715
-67.615175
-69.721862
-70.731898
-97.579695
-57.210477
-80.312122
-80.182656
-65.348419
-56.185017
-81.693278
-63.373913
-72.019798
-54.007151
-77.135912
-47.231067
-32.877997
-34.225755
-39.999625
-36.768692
-41.761018
-44.609058
0
0
0
-54.931891
0
-45.24727
0
0
0
0
0
0
0
0
0
0
0
0
0
0
0
0
0
0
0
0
0
0
0
0
0
0
0
0
0
-15.840772
-22.178774
-23.847006
0
0
-21.182439
-18.305207
-11.018122
0
-14.001509
0
-13.547595
-11.389213
0
-15.747861
-22.084752
-20.032637
-17.43995
-20.403489
-17.829309
-15.674005
0
0
0
0
0
0
0
-35.93112
-30.655911
-48.117396
-32.043049
-40.765645
-40.820155
-28.066484
-31.451552
-28.058987
-32.432098
-25.310739
-33.964159
-25.84163
-30.737216
0
0
-64.998857
-52.134472
-71.107325
0
0
0
0
-128.59345
-115.83784
-103.09451
0
0
0
0
0
0
0
0
0
0
0
0
0
0
0
0
0
0
0
0
0
0
0
0
-81.625481
-114.1959
-75.798613
-92.18761
0
-85.180518
0
-57.632754
-85.527301
0
-77.950475
0
0
-27.205098
-34.561259
-28.940507
0
-35.329721
0
-22.519939
-34.710212
-45.690137
-54.923031
-42.531846
-43.297947
-49.136742
-34.818852
0
0
0
0
0
0
0
-21.936988
-16.757287
-18.196694
0
-17.445738
-22.939115
0
-32.348726
-40.212486
-52.644648
0
-42.496711
0
-45.436135
-28.479328
-27.830952
-34.338559
-22.675651
-35.157328
-22.853194
-28.467778
-19.970185
0
0
0
0
-16.115882
0
-84.936109
0
-97.777664
-116.63737
0
-76.490993
-103.5938
-140.94496
-121.22646
-124.15563
-136.97724
-135.352
-125.57991
-149.91868
-73.662329
-110.48251
-104.97786
-119.85444
-89.690946
-83.500137
-117.77498
-123.61293
-92.77175
-114.01368
-93.901287
-89.396661
-117.75932
-124.7778
-151.29923
-164.14499
-162.2077
-164.409
-154.39446
-161.81866
-153.2774
-138.03045
-131.71976
-119.01539
-143.8068
-123.85149
-136.53802
-147.90019
-122.00765
-71.169391
-88.870682
-121.17746
-82.170917
-126.39531
-112.55012
0
0
0
0
0
-77.594013
0
0
0
0
0
0
0
0
0
0
0
0
0
0
-76.975263
0
-75.340176
-81.710526
0
0
-82.839318
0
0
0
0
0
0
0
0
0
-80.262345
-79.803782
0
-85.242953
0
0
0
0
0
0
0
0
0
-116.35319
-116.16321
-107.10386
-104.31545
-120.52671
-114.66061
-108.25151
-77.949956
-81.893041
-89.5569
-91.436036
-75.043513
-90.963739
-77.749834
-107.21743
-89.912689
-98.841832
-101.85931
-96.110851
-110.40947
-99.274892
-101.32432
-98.809369
-103.62307
-96.801053
-109.18421
-103.66012
-94.445155
-86.670665
-69.539298
-77.503216
-66.375438
-79.637138
-84.065927
-72.389064
-100.01707
-113.8395
-104.43378
-93.0786
-110.69037
-93.160314
-100.69383
-91.086861
-81.314874
-87.043593
-69.910184
-96.089056
-83.425382
-76.952158
-79.276997
-97.513844
-88.874657
-88.846978
-86.913545
-80.381877
-91.93632
-62.023814
-46.63323
-54.483373
-49.307449
-61.335738
-57.498705
-50.625151
-76.813032
-77.405519
-92.970341
-91.040342
-91.790395
-77.964368
-74.76479
-75.695309
-85.276078
-68.312191
-88.679783
-74.620952
-90.551958
-71.727378
-66.931112
-77.85231
-62.573304
-56.180992
-75.194982
-68.484988
-55.360081
0
-83.119168
0
-75.350291
0
0
-78.546402
0
0
0
0
0
0
0
0
0
0
0
0
0
0
0
0
0
0
0
0
0
0
-76.138274
0
-65.754544
0
-72.271919
0
0
0
0
0
0
0
0
0
0
0
0
0
0
0
0
-82.005769
-80.090345
0
0
-77.868386
0
0
0
0
0
0
0
0
0
0
-49.489923
-47.253053
-58.579878
0
0
0
0
0
0
0
0
0
0
-74.302105
-59.431032
0
-68.84592
0
0
0
-73.879119
0
-55.87266
0
-67.411619
0
0
0
0
0
0
0
0
-125.51171
-109.28208
-94.404135
-98.054705
-125.57192
-105.67779
-99.274202
-156.71992
-177.2928
-160.97652
-174.9159
-156.63728
-159.80462
-173.7293
-132.56531
-135.53324
-112.22734
-109.32181
-109.16225
-135.7844
-132.31016
-131.58181
-126.2513
-90.545158
-82.705451
-93.357272
-130.57948
-127.42856
-132.92766
-113.20905
-138.94424
-112.37763
-134.53506
-109.07514
-136.08473
-125.36655
-92.2197
-107.13627
-93.471424
-106.22367
-96.378946
-125.44014
-132.65882
-94.568102
-129.32387
-84.626606
-131.35906
-96.013103
-129.58034
-110.37724
-132.2649
-133.4371
-138.59778
-123.89558
-125.50359
-117.72528
-90.773592
-73.442295
-86.519084
-103.50077
-75.146075
-104.14559
-89.207799
-93.357205
-117.78145
-87.849182
-92.479636
-76.648405
-106.27945
-104.41321
-105.70386
-129.61822
-114.85727
-112.65269
-118.4899
-118.44389
-102.17386
0
-92.72883
0
-118.04253
-114.95437
-98.021225
0
0
-108.34663
0
0
0
0
0
0
0
0
0
0
0
-91.579418
0
0
0
-110.81758
0
-90.998336
0
-101.55284
0
0
0
0
0
-92.656423
-121.48567
-121.92513
-107.43485
-114.19077
-98.746672
-97.693424
-82.226862
0
-87.068399
-100.64858
0
-101.12909
0
0
0
0
0
0
0
0
0
0
0
0
-84.02609
-112.01505
-88.099832
-82.408523
-71.682744
-102.55788
-90.088731
-87.661428
-113.49859
-106.11678
0
-109.21854
0
0
0
0
0
0
-141.27513
-141.8828
-142.37317
-146.83182
-134.82064
-148.29416
-139.1907
-137.18298
-136.79012
-119.26914
-116.62293
-122.83887
-141.46422
-129.49676
-138.66625
-118.19613
-108.79788
-111.75101
-124.8426
-124.75156
-134.2875
-134.26022
-134.03656
-119.81349
-118.68935
-127.7632
-131.48589
-123.65703
-109.70579
-22.892474
0
-16.777577
-15.953819
-20.256427
-18.884423
-16.974873
-28.295828
-29.958978
-29.251149
-21.196906
-33.903764
-24.570388
-24.393823
-43.694526
-36.350057
-34.134993
-37.282912
-39.317388
-38.580803
-42.455783
-17.51349
-10.939954
-15.598224
-14.729147
-18.863037
-14.471784
-13.624909
-20.005161
-16.796008
-24.205075
-20.939454
-20.07626
-24.008335
-17.118714
-19.037539
-13.970795
-22.93766
-20.208798
-18.791958
-22.893798
-15.19152
-22.952558
-31.269548
-28.485117
-27.310204
-23.577745
-27.502098
-25.970933
-21.425953
-27.320767
-19.767575
-22.342871
-22.971796
-25.452762
-18.400253
-20.553683
-26.034928
-18.035912
-21.679886
-22.10245
-24.449827
-16.601438
-23.821374
0
0
0
0
0
0
-40.471139
-56.2943
-49.292369
-60.965353
-43.008295
-46.467941
-52.052142
-27.176415
-33.089063
-24.588346
-21.709853
-19.81013
-33.616715
-27.161975
-25.954018
-28.129819
-22.102287
-19.806355
-28.533395
-19.312572
-25.782313
-29.128012
0
-35.312477
-22.791146
-32.205509
-31.685027
-19.240382
-31.960657
0
0
0
0
0
-39.80911
-21.579429
0
-16.809492
-16.941213
0
-16.659568
-22.100668
0
0
0
0
0
0
0
0
0
0
0
0
0
0
0
0
0
0
0
0
0
0
0
-53.76978
0
0
0
0
0
0
0
0
0
0
0
0
0
0
0
0
0
0
0
0
0
0
0
0
0
0
0
0
0
0
0
0
0
0
0
0
0
0
0
0
0
0
0
0
0
0
0
0
0
0
0
0
0
0
-13.924524
-17.540097
-15.620416
-13.516849
-15.283786
-11.781071
0
0
0
0
0
0
0
0
0
0
0
0
0
0
0
0
-17.017272
0
0
0
0
0
0
-13.41599
0
0
0
0
-67.453503
0
0
0
-69.277804
-52.615834
-75.0236
-73.398769
-71.536789
-102.12426
-72.55099
-87.816046
-62.917224
-82.903463
-54.521644
-42.668767
-47.644364
-34.689944
-52.994197
-43.961712
-45.184514
-76.090381
-76.782164
-89.968455
-96.755748
-72.4932
-84.963189
-88.855101
-66.547206
-68.079374
-61.468642
-86.330743
-67.381967
-56.326927
-80.317428
-81.770546
-89.303217
-106.98011
-101.76067
-95.574191
-88.306447
-88.63245
-59.114071
0
0
0
-49.778879
-63.833766
-45.315923
0
0
0
0
0
0
0
0
0
0
0
0
0
0
0
0
0
0
0
0
0
0
0
0
0
0
0
0
0
0
0
0
0
0
0
0
0
0
0
0
0
0
0
0
0
0
0
0
0
0
0
0
0
0
0
0
0
0
0
0
0
0
0
0
0
0
0
0
0
0
0
0
0
0
0
0
0
0
0
-99.591444
0
0
0
0
0
0
0
0
0
0
0
0
0
-99.011282
0
0
0
0
0
0
0
0
0
0
0
0
0
0
0
0
0
0
0
0
-40.478581
0
0
0
0
0
0
0
0
0
0
0
0
0
-49.624188
0
0
0
0
0
0
0
0
0
0
0
-84.150067
0
0
0
-81.971484
0
0
-112.23661
-132.29894
-108.76872
-108.75481
-128.32699
-120.65425
-101.32983
-99.688802
-115.27024
-83.46891
0
-122.06799
0
-92.751577
-97.117659
-104.09538
-92.021798
0
-110.78002
0
-92.024231
-102.34908
-74.237168
-106.47368
-88.334493
-121.51448
-93.72032
-74.174238
-97.538293
-89.499424
-107.38549
-101.51924
-110.43339
-94.948879
-84.22542
0
0
0
0
0
0
0
0
0
0
0
0
0
0
0
0
0
0
0
0
0
0
0
0
0
0
0
0
0
0
0
0
0
0
0
0
-68.813168
-46.557527
0
0
0
0
0
0
0
0
0
0
0
-28.5726
-32.449929
0
-21.206276
-31.945681
-24.755716
-27.922834
0
0
0
0
0
0
-24.379605
0
0
-18.290501
0
0
-20.926835
-13.743746
0
0
-13.723292
0
-15.33793
-11.355385
0
-18.392939
-26.798717
-20.742399
-18.561043
-21.298967
-23.826181
-16.133695
0
0
0
0
0
0
0
-66.656184
-43.881137
-56.37369
-52.440757
-60.350147
-64.549555
-46.904025
-60.606624
-45.171925
-57.111499
-47.630187
-41.483686
-50.448171
-37.930987
0
-39.028099
-48.137287
-42.704571
0
-35.9344
-33.390739
-37.261695
-24.24965
-33.049689
-24.234272
-35.774702
-28.078266
-33.161047
-46.328754
-58.42664
-53.268366
-43.229254
-58.446689
-48.698792
-41.157912
-48.356576
-65.350289
-45.697672
-56.411713
-62.1821
-49.612208
-43.742406
-38.592285
-33.981655
-26.803239
-35.693368
-40.714784
-31.209713
-33.755836
-26.710566
-28.9831
-21.918428
-16.812937
-29.863129
-25.100887
-19.757254
-34.552859
-44.929782
-48.489126
-39.649006
-43.719848
-36.227396
-37.790492
-31.27394
-36.472637
-37.953187
-25.436475
-39.890073
-29.145799
-29.395958
-26.645573
-28.465083
-23.303891
-20.304301
-28.787242
-26.217911
-20.791394
-34.538172
-39.767823
-50.293411
-44.358002
-44.239047
-39.020546
-34.161704
-28.381304
-24.563445
-33.000334
-24.898051
-30.408086
-31.040423
-22.432915
-24.365298
-14.907375
-19.207614
-17.456694
-23.188185
-21.783766
-18.056689
0
0
0
0
0
0
0
0
0
0
0
0
0
0
0
0
0
0
0
0
0
0
0
0
0
0
0
0
0
0
-35.706022
-21.556876
0
0
-27.118504
0
-39.653606
0
-44.0795
0
0
-33.134616
0
0
0
0
0
0
0
0
0
0
0
0
0
0
-11.418882
-16.766869
-12.883791
0
-12.545597
-15.316751
0
-9.5216586
0
-12.694107
0
-11.730496
-10.405376
0
-12.515111
-14.325267
-18.595413
-15.957687
-14.719936
-12.145249
-16.296588
0
0
0
0
0
0
0
-13.653156
-19.144345
-17.209667
-19.961969
-15.928184
-14.858085
-17.619133
-10.359753
0
-13.726995
0
0
-14.044007
0
0
0
0
0
0
0
0
-92.683133
-75.0324
-103.54042
-120.79401
-77.150945
-88.554307
-112.24502
-151.7957
-154.74066
-136.7463
-148.52763
-164.32418
-161.66065
-159.81329
-96.389428
-143.47549
-119.56839
-132.5207
-131.34843
-109.50399
-155.16314
-143.57446
-144.6938
-173.92369
-135.59359
-122.68422
-164.88302
-152.50484
-156.76868
-188.8509
-175.78451
-167.51938
-162.60053
-174.31325
-157.44629
-156.26923
-162.51017
-169.58862
-161.21939
-166.91624
-160.18252
-162.94829
-132.11227
-87.913849
-116.22476
-134.2737
-102.23663
-142.67523
-123.09123
0
-107.74126
0
0
-152.95595
-145.66341
0
0
0
0
0
0
0
0
-103.33693
0
0
0
-120.51754
0
-131.25128
-136.69047
-138.46725
-129.29424
-162.81436
-110.68121
-154.87667
-149.59101
0
0
0
0
0
0
0
0
0
0
0
0
0
0
-159.87811
-195.74091
-184.55688
-165.51195
-181.17524
-165.09605
-171.09426
-148.21086
-134.23734
-161.24978
-172.06138
-155.06176
-159.32347
-158.55906
-163.88361
-164.02435
-169.57146
-169.75042
-159.12908
-166.58397
-158.07254
-132.2916
-163.34067
-161.01627
-168.97547
-147.32176
-171.6286
-150.94683
-176.37615
-160.90222
-182.21061
-172.17355
-178.44115
-167.96438
-176.66745
-183.91484
-181.29419
-184.77468
-164.4402
-185.40974
-180.40754
-169.3034
-174.43649
-183.91188
-185.16779
-175.54429
-176.0093
-177.85706
-187.3261
-157.58397
-127.50225
-136.11143
-145.06421
-161.26513
-146.82664
-138.34902
-167.8819
-167.18778
-141.44891
-174.47023
-161.26019
-180.80205
-160.62135
-167.62358
-182.87311
-156.42613
-162.70306
-175.32574
-179.80004
-148.33692
-102.53054
-120.12043
-156.52257
-121.97811
-94.2698
-132.2909
-130.16613
0
0
0
0
0
0
0
0
0
0
0
0
0
0
0
0
-91.498451
-77.459396
-99.770839
0
0
0
0
0
0
0
0
0
-89.227677
-139.44382
-87.288059
-106.77767
-110.58961
-118.84809
0
0
-101.35629
0
-82.243068
0
-107.61368
0
-173.17229
-148.27579
-176.3156
-170.75059
-161.78074
-177.42684
-164.41511
0
0
0
0
0
0
0
-140.36867
-91.311561
-120.56775
-151.31665
-158.56848
-98.931674
-126.75602
0
0
0
0
0
0
0
0
0
0
0
0
0
0
-137.77547
-150.42142
-119.98846
-95.868213
-151.27106
-130.55135
-96.440777
-171.3823
-185.94536
-159.52301
-177.90166
-169.07171
-186.34372
-152.66353
-167.20586
-178.82923
-182.60184
-148.5811
-161.60866
-189.61796
-156.15841
-170.46681
-206.54066
-176.18469
-177.53657
-168.19705
-176.30005
-180.58834
-152.23587
-139.86588
-122.33447
-108.88788
-129.26797
-147.67496
-144.30205
-163.3531
-167.7862
-181.17847
-140.08719
-185.68975
-148.23841
-159.65854
-157.11262
-130.53327
-146.23213
-114.24559
-152.98546
-136.26459
-149.19087
-122.29208
-127.84655
-131.04802
-155.69567
-110.04166
-143.34513
-138.12836
-109.87311
-120.17556
-84.910902
-114.15081
-93.049702
-100.95182
-131.11758
-136.2805
-167.98303
-167.09745
-153.32204
-158.83048
-148.36763
-149.70704
-110.06993
0
-149.10459
-160.85497
-106.62332
-152.65765
-115.26931
0
0
0
0
0
0
0
0
0
0
0
0
0
0
-103.03656
-130.95368
-132.70726
-86.463956
-95.37939
-142.15156
-95.476118
-115.65826
-160.34512
-163.21325
0
-159.92215
-117.51185
-116.89703
-87.104642
0
0
0
0
0
-92.341712
-93.438098
-102.79455
-79.298252
-89.949556
-82.905529
-98.392462
-95.195913
-101.98597
-132.91335
-117.15433
-134.73187
-108.90963
-103.72269
-124.70286
-94.055059
-81.212579
-77.733732
-83.352688
-85.192508
-93.199004
-88.645556
-89.337446
-69.147665
-86.631216
-74.241381
-86.649179
-82.555405
-83.931452
-90.166349
0
-75.32773
-106.26491
-73.458168
-85.535748
-102.16175
-98.228946
-97.907672
-93.60334
-93.875383
-96.189684
-108.02564
-93.087741
0
0
0
0
0
0
0
0
0
0
0
0
0
0
0
0
0
0
0
0
0
0
0
0
0
0
0
0
0
0
0
0
0
0
0
0
0
-57.359787
-71.291919
-61.408899
0
0
0
0
0
0
0
0
0
0
0
0
0
0
0
0
0
0
-66.766759
0
0
0
0
0
0
0
0
0
0
0
0
0
-124.15194
-143.49308
0
0
0
0
0
-85.339394
0
0
0
0
0
0
0
0
0
0
0
0
0
0
0
0
0
0
-83.967915
-58.372741
-71.854938
-76.817501
-66.845303
-88.19799
-70.714074
0
0
0
0
0
0
0
0
0
0
0
0
0
0
0
0
-66.371163
0
-61.717411
-78.883056
0
0
0
-88.374882
0
-103.94324
0
-75.383774
-56.871459
-70.997006
-65.855689
-55.260019
-51.82678
-47.857127
-58.91811
0
-38.032122
-41.07539
-38.133531
-26.05458
-34.059179
-29.697357
-60.850859
-70.012909
-56.956071
-52.737335
-70.9422
-63.67624
-57.457523
-47.702061
-63.965245
-52.054146
-46.684802
-49.716708
-41.240794
-56.386765
-41.819434
-41.426581
-42.713133
-30.248619
-35.507274
-49.275943
-37.412154
-40.928548
-33.416562
-42.996774
-31.670846
-39.616207
-43.330289
-31.914836
-49.004624
-66.071618
-52.38218
-52.170233
-57.803963
-45.710468
-54.579353
-35.513479
-24.313635
-27.222185
-27.836461
-30.466069
-33.186638
-28.652143
-103.52687
-86.997297
-95.561093
-81.123394
-81.690439
-72.838844
-86.793455
-106.65801
-81.444708
-95.405893
-84.387914
-82.455739
-73.071008
-97.010934
-76.440573
-74.257043
-85.192135
-72.821631
-56.568923
-63.094997
-64.471238
-17.859833
-22.390348
-23.917688