/*--------------------------------*- C++ -*----------------------------------*\
  =========                 |
  \\      /  F ield         | OpenFOAM: The Open Source CFD Toolbox
   \\    /   O peration     | Website:  https://openfoam.org
    \\  /    A nd           | Version:  8
     \\/     M anipulation  |
\*---------------------------------------------------------------------------*/
/*   Windows 32 and 64 bit porting by blueCAPE: http://www.bluecape.com.pt   *\
|  Based on Windows porting (2.0.x v4) by Symscape: http://www.symscape.com   |
\*---------------------------------------------------------------------------*/
FoamFile
{
    version     2.0;
    format      ascii;
    class       scalarListList;
    location    "constant/vegetation";
    object      sunViewCoeff;
}
// * * * * * * * * * * * * * * * * * * * * * * * * * * * * * * * * * * * * * //


5
(

887
(
0
0
0
0
0
0
0
0
0
0
0
501.05251
501.05251
501.05251
501.05251
501.05251
501.05251
501.05251
501.05251
501.05251
501.05251
501.05251
501.05251
501.05251
501.05251
501.05251
501.05251
501.05251
501.05251
501.05251
501.05251
501.05251
501.05251
501.05251
501.05251
501.05251
501.05251
501.05251
501.05251
501.05251
501.05251
501.05251
501.05251
501.05251
501.05251
156.52201
0
501.05251
156.7015
0
0
501.05251
501.05251
501.05251
156.87994
501.05251
0
0
376.41474
171.29695
373.79536
0
0
0
0
0
0
0
0
0
0
0
0
501.05251
501.05251
501.05251
0
0
0
501.05251
375.85159
374.56457
501.05251
501.05251
501.05251
501.05251
0
501.05251
501.05251
0
0
0
0
0
0
0
0
501.05251
501.05251
0
0
0
0
0
0
0
0
0
0
0
0
0
0
0
0
0
0
0
0
0
0
0
0
0
0
0
0
0
0
0
0
0
0
0
0
0
0
0
0
0
0
0
0
0
0
0
0
0
0
0
0
0
0
0
0
0
0
0
0
0
0
0
0
0
0
0
0
0
0
0
0
0
0
0
0
0
0
0
0
0
0
0
0
0
0
0
0
0
0
0
0
0
0
0
0
0
0
0
0
0
0
0
0
0
0
0
0
0
0
0
0
0
0
0
0
0
0
0
0
0
0
0
0
0
0
0
0
0
0
0
0
0
0
0
0
0
0
0
0
0
0
0
0
0
0
0
0
0
0
0
0
0
0
0
0
0
0
0
0
0
0
0
0
0
0
0
0
0
0
0
0
0
0
0
0
0
0
0
0
0
0
0
0
0
0
0
0
0
0
0
0
0
0
0
0
0
0
0
0
0
0
0
0
0
0
0
0
0
0
0
0
0
0
0
0
0
0
0
0
0
0
0
0
0
0
0
0
0
0
0
0
0
0
0
0
0
0
0
0
0
0
0
0
0
0
0
0
0
0
0
0
0
0
0
0
0
0
0
0
0
0
0
0
0
0
0
0
0
0
0
0
0
0
0
0
0
0
0
0
0
0
0
0
0
0
0
0
0
0
0
0
0
0
0
0
0
0
0
0
0
0
0
0
0
0
0
0
0
0
0
0
0
0
0
0
0
0
0
0
0
0
0
0
0
0
0
0
0
0
0
0
0
0
0
0
0
0
0
0
0
0
0
0
0
0
0
0
0
0
0
0
0
0
0
0
0
0
0
0
0
0
0
0
0
0
0
0
0
0
0
0
0
0
0
0
0
0
0
0
0
0
0
0
0
0
0
0
0
0
0
0
0
0
0
0
0
0
0
0
0
0
0
0
0
0
0
0
0
0
0
0
0
0
0
0
0
0
0
0
0
0
0
0
0
0
0
0
0
0
0
0
0
0
0
0
0
0
0
0
0
0
0
0
0
0
0
0
0
0
0
0
0
0
0
0
0
0
0
0
0
0
0
0
0
0
0
0
0
0
0
0
0
0
0
0
0
0
0
0
0
0
0
0
0
0
0
0
0
0
0
0
0
0
0
0
0
0
0
0
0
0
0
0
0
0
0
0
0
0
0
0
0
0
0
0
0
0
0
0
0
0
0
0
0
0
0
0
0
0
0
0
0
0
0
0
0
0
0
0
0
0
0
0
0
0
0
0
0
0
0
0
0
0
0
0
0
0
0
0
0
0
0
0
0
0
0
0
0
0
0
0
0
0
0
0
0
0
0
0
0
0
0
0
0
0
0
0
0
0
0
0
0
0
0
0
0
0
0
0
0
0
0
0
0
0
0
0
0
0
0
0
0
0
0
0
0
0
0
0
0
0
0
0
0
0
0
0
0
0
0
0
0
0
0
0
0
0
0
0
0
0
0
0
0
0
0
0
0
0
0
0
0
0
0
0
0
0
0
0
0
0
0
0
0
0
0
0
0
0
0
0
0
0
0
0
0
0
0
0
0
0
0
0
0
0
0
0
0
0
0
0
0
0
0
0
0
0
0
0
0
0
0
0
0
0
0
0
0
0
0
0
0
0
0
0
0
0
0
0
0
0
0
0
0
0
0
0
0
0
0
0
0
0
0
0
0
0
0
0
0
0
0
0
0
0
0
0
0
0
0
0
0
0
0
0
0
0
0
0
0
0
0
0
0
0
0
0
0
0
0
0
0
0
0
0
0
0
0
0
0
0
0
0
0
0
0
0
)


887
(
0
0
0
0
0
0
0
0
0
0
0
284.54856
284.54856
284.54856
284.54856
284.54856
284.54856
284.54856
284.54856
284.54856
284.54856
284.54856
284.54856
284.54856
284.54856
284.54856
284.54856
284.54856
284.54856
284.54856
284.54856
284.54856
284.54856
284.54856
284.54856
284.54856
284.54856
284.54856
284.54856
284.54856
284.54856
284.54856
284.54856
284.54856
284.54856
284.54856
284.54856
284.54856
284.54856
284.54856
284.54856
284.54856
284.54856
284.54856
284.54856
284.54856
284.54856
284.54856
284.54856
284.54856
284.54856
284.54856
284.54856
284.54856
284.54856
284.54856
284.54856
284.54856
284.54856
284.54856
284.54856
284.54856
284.54856
284.54856
284.54856
284.54856
284.54856
284.54856
284.54856
284.54856
284.54856
284.54856
284.54856
284.54856
284.54856
284.54856
284.54856
284.54856
284.54856
284.54856
284.54856
284.54856
284.54856
284.54856
284.54856
284.54856
284.54856
284.54856
284.54856
0
0
0
0
0
0
0
0
0
0
0
0
0
0
0
0
0
0
0
0
0
0
0
0
0
0
0
0
0
0
0
0
23.719504
23.719504
23.719504
23.719504
23.719504
23.719504
23.719504
23.719504
23.719504
23.719504
23.719504
23.719504
23.719504
23.719504
23.719504
23.719504
23.719504
23.719504
23.719504
23.719504
23.719504
23.719504
23.719504
23.719504
23.719504
23.719504
23.719504
23.719504
23.719504
23.719504
23.719504
23.719504
23.719504
23.719504
23.719504
23.719504
23.719504
23.719504
23.719504
23.719504
23.719504
23.719504
23.719504
23.719504
23.719504
23.719504
23.719504
23.719504
23.719504
23.719504
23.719504
23.719504
23.719504
23.719504
23.719504
23.719504
23.719504
23.719504
23.719504
23.719504
23.719504
23.719504
23.719504
23.719504
23.719504
23.719504
23.719504
23.719504
23.719504
23.719504
23.719504
23.719504
23.719504
23.719504
23.719504
23.719504
23.719504
23.719504
23.719504
23.719504
23.719504
23.719504
23.719504
23.719504
23.719504
23.719504
23.719504
23.719504
23.719504
23.719504
23.719504
23.719504
23.719504
23.719504
23.719504
23.719504
23.719504
23.719504
23.719504
23.719504
23.719504
23.719504
23.719504
23.719504
23.719504
23.719504
23.719504
23.719504
23.719504
23.719504
23.719504
23.719504
23.719504
23.719504
23.719504
23.719504
23.719504
23.719504
23.719504
23.719504
23.719504
23.719504
23.719504
23.719504
23.719504
23.719504
23.719504
23.719504
23.719504
23.719504
23.719504
23.719504
23.719504
23.719504
23.719504
23.719504
23.719504
23.719504
23.719504
23.719504
23.719504
23.719504
23.719504
23.719504
23.719504
23.719504
23.719504
23.719504
23.719504
23.719504
23.719504
23.719504
23.719504
23.719504
23.719504
23.719504
23.719504
23.719504
23.719504
23.719504
23.719504
23.719504
23.719504
23.719504
23.719504
23.719504
23.719504
23.719504
23.719504
23.719504
23.719504
23.719504
23.719504
23.719504
23.719504
23.719504
23.719504
23.719504
23.719504
23.719504
23.719504
23.719504
23.719504
23.719504
23.719504
23.719504
23.719504
23.719504
23.719504
23.719504
23.719504
23.719504
23.719504
23.719504
23.719504
23.719504
23.719504
23.719504
23.719504
23.719504
23.719504
23.719504
23.719504
23.719504
23.719504
23.719504
23.719504
23.719504
23.719504
23.719504
23.719504
23.719504
23.719504
23.719504
23.719504
23.719504
23.719504
23.719504
23.719504
23.719504
23.719504
23.719504
23.719504
23.719504
23.719504
23.719504
23.719504
23.719504
23.719504
23.719504
23.719504
23.719504
23.719504
23.719504
23.719504
23.719504
23.719504
23.719504
23.719504
23.719504
23.719504
23.719504
23.719504
23.719504
23.719504
23.719504
23.719504
23.719504
23.719504
23.719504
23.719504
23.719504
23.719504
23.719504
23.719504
23.719504
23.719504
23.719504
23.719504
23.719504
23.719504
23.719504
23.719504
23.719504
23.719504
23.719504
23.719504
23.719504
23.719504
23.719504
23.719504
23.719504
23.719504
23.719504
23.719504
23.719504
23.719504
23.719504
23.719504
23.719504
23.719504
23.719504
23.719504
23.719504
23.719504
23.719504
23.719504
23.719504
23.719504
23.719504
23.719504
23.719504
23.719504
23.719504
23.719504
23.719504
23.719504
23.719504
23.719504
23.719504
23.719504
23.719504
23.719504
23.719504
23.719504
23.719504
23.719504
23.719504
23.719504
23.719504
23.719504
23.719504
23.719504
23.719504
23.719504
23.719504
23.719504
23.719504
23.719504
23.719504
23.719504
23.719504
23.719504
23.719504
23.719504
23.719504
23.719504
23.719504
23.719504
23.719504
23.719504
23.719504
23.719504
23.719504
23.719504
23.719504
23.719504
23.719504
23.719504
23.719504
23.719504
23.719504
23.719504
23.719504
23.719504
23.719504
23.719504
23.719504
23.719504
23.719504
23.719504
23.719504
23.719504
23.719504
23.719504
23.719504
23.719504
23.719504
23.719504
23.719504
23.719504
23.719504
23.719504
23.719504
23.719504
23.719504
23.719504
23.719504
23.719504
23.719504
23.719504
23.719504
23.719504
23.719504
23.719504
23.719504
23.719504
23.719504
23.719504
23.719504
23.719504
23.719504
23.719504
23.719504
23.719504
23.719504
23.719504
23.719504
23.719504
23.719504
23.719504
23.719504
23.719504
23.719504
23.719504
23.719504
23.719504
23.719504
23.719504
23.719504
23.719504
23.719504
23.719504
23.719504
23.719504
23.719504
23.719504
23.719504
23.719504
23.719504
23.719504
23.719504
23.719504
23.719504
23.719504
23.719504
23.719504
23.719504
23.719504
23.719504
23.719504
23.719504
23.719504
23.719504
23.719504
23.719504
23.719504
23.719504
23.719504
23.719504
23.719504
23.719504
23.719504
23.719504
23.719504
23.719504
23.719504
23.719504
23.719504
23.719504
23.719504
23.719504
23.719504
23.719504
23.719504
23.719504
23.719504
23.719504
23.719504
23.719504
23.719504
23.719504
23.719504
23.719504
23.719504
23.719504
23.719504
23.719504
23.719504
23.719504
23.719504
23.719504
23.719504
23.719504
23.719504
23.719504
23.719504
23.719504
23.719504
23.719504
23.719504
23.719504
23.719504
23.719504
23.719504
23.719504
23.719504
23.719504
23.719504
23.719504
23.719504
23.719504
23.719504
23.719504
23.719504
23.719504
23.719504
23.719504
23.719504
23.719504
23.719504
23.719504
23.719504
23.719504
23.719504
23.719504
23.719504
23.719504
23.719504
23.719504
23.719504
23.719504
23.719504
23.719504
23.719504
23.719504
23.719504
23.719504
23.719504
23.719504
23.719504
23.719504
23.719504
23.719504
23.719504
23.719504
23.719504
23.719504
23.719504
23.719504
23.719504
23.719504
23.719504
23.719504
23.719504
23.719504
23.719504
23.719504
23.719504
23.719504
23.719504
23.719504
23.719504
23.719504
23.719504
23.719504
23.719504
23.719504
23.719504
23.719504
23.719504
23.719504
23.719504
23.719504
23.719504
23.719504
23.719504
23.719504
23.719504
23.719504
23.719504
23.719504
23.719504
23.719504
23.719504
23.719504
23.719504
23.719504
23.719504
23.719504
23.719504
23.719504
23.719504
23.719504
23.719504
23.719504
23.719504
23.719504
23.719504
23.719504
23.719504
23.719504
23.719504
23.719504
23.719504
23.719504
23.719504
23.719504
23.719504
23.719504
23.719504
23.719504
23.719504
23.719504
23.719504
23.719504
23.719504
23.719504
23.719504
23.719504
23.719504
23.719504
23.719504
23.719504
23.719504
23.719504
23.719504
23.719504
23.719504
23.719504
23.719504
23.719504
23.719504
23.719504
23.719504
23.719504
23.719504
23.719504
23.719504
23.719504
23.719504
23.719504
23.719504
23.719504
23.719504
23.719504
23.719504
23.719504
23.719504
23.719504
23.719504
23.719504
23.719504
23.719504
23.719504
23.719504
23.719504
23.719504
23.719504
23.719504
23.719504
23.719504
23.719504
23.719504
23.719504
23.719504
23.719504
23.719504
23.719504
23.719504
23.719504
23.719504
23.719504
23.719504
23.719504
23.719504
23.719504
23.719504
23.719504
23.719504
23.719504
23.719504
23.719504
23.719504
23.719504
23.719504
23.719504
23.719504
23.719504
23.719504
23.719504
23.719504
23.719504
23.719504
23.719504
23.719504
23.719504
23.719504
23.719504
23.719504
23.719504
23.719504
23.719504
23.719504
23.719504
23.719504
23.719504
23.719504
23.719504
23.719504
23.719504
23.719504
23.719504
23.719504
23.719504
23.719504
23.719504
23.719504
23.719504
23.719504
23.719504
23.719504
23.719504
23.719504
23.719504
23.719504
23.719504
23.719504
23.719504
23.719504
23.719504
23.719504
23.719504
23.719504
23.719504
23.719504
23.719504
23.719504
23.719504
23.719504
23.719504
23.719504
23.719504
23.719504
23.719504
23.719504
23.719504
23.719504
23.719504
23.719504
23.719504
23.719504
23.719504
23.719504
23.719504
23.719504
23.719504
23.719504
23.719504
23.719504
23.719504
23.719504
23.719504
23.719504
23.719504
23.719504
23.719504
23.719504
23.719504
23.719504
23.719504
23.719504
23.719504
23.719504
23.719504
23.719504
23.719504
23.719504
23.719504
23.719504
23.719504
23.719504
23.719504
23.719504
23.719504
23.719504
)


887
(
0
0
0
0
0
0
0
0
0
0
0
247.54772
247.54772
247.54772
247.54772
247.54772
247.54772
247.54772
247.54772
247.54772
247.54772
247.54772
247.54772
247.54772
247.54772
247.54772
247.54772
247.54772
247.54772
247.54772
247.54772
247.54772
247.54772
247.54772
247.54772
247.54772
247.54772
247.54772
247.54772
247.54772
247.54772
247.54772
247.54772
247.54772
247.54772
247.54772
247.54772
247.54772
247.54772
247.54772
247.54772
247.54772
247.54772
247.54772
247.54772
247.54772
247.54772
247.54772
247.54772
247.54772
247.54772
247.54772
247.54772
247.54772
247.54772
247.54772
247.54772
247.54772
247.54772
247.54772
247.54772
247.54772
247.54772
247.54772
247.54772
247.54772
247.54772
247.54772
247.54772
247.54772
247.54772
247.54772
247.54772
247.54772
247.54772
247.54772
247.54772
247.54772
247.54772
247.54772
247.54772
247.54772
247.54772
247.54772
247.54772
247.54772
247.54772
247.54772
247.54772
0
0
0
0
0
0
0
0
0
0
0
0
0
0
0
0
0
0
0
0
0
0
0
0
0
0
0
0
0
0
0
0
83.269254
83.269254
83.269254
83.269254
83.269254
83.269254
83.269254
83.269254
83.269254
83.269254
83.269254
83.269254
83.269254
83.269254
83.269254
83.269254
83.269254
83.269254
83.269254
83.269254
83.269254
83.269254
83.269254
83.269254
83.269254
83.269254
83.269254
83.269254
83.269254
83.269254
83.269254
83.269254
83.269254
83.269254
83.269254
83.269254
83.269254
83.269254
83.269254
83.269254
83.269254
83.269254
83.269254
83.269254
83.269254
83.269254
83.269254
83.269254
83.269254
83.269254
83.269254
83.269254
83.269254
83.269254
83.269254
83.269254
83.269254
83.269254
83.269254
83.269254
83.269254
83.269254
83.269254
83.269254
83.269254
83.269254
83.269254
83.269254
83.269254
83.269254
83.269254
83.269254
83.269254
83.269254
83.269254
83.269254
83.269254
83.269254
83.269254
83.269254
83.269254
83.269254
83.269254
83.269254
83.269254
83.269254
83.269254
83.269254
83.269254
83.269254
83.269254
83.269254
83.269254
83.269254
83.269254
83.269254
83.269254
83.269254
83.269254
83.269254
83.269254
83.269254
83.269254
83.269254
83.269254
83.269254
83.269254
83.269254
83.269254
83.269254
83.269254
83.269254
83.269254
83.269254
83.269254
83.269254
83.269254
83.269254
83.269254
83.269254
83.269254
83.269254
83.269254
83.269254
83.269254
83.269254
83.269254
83.269254
83.269254
83.269254
83.269254
83.269254
83.269254
83.269254
83.269254
83.269254
83.269254
83.269254
83.269254
83.269254
83.269254
83.269254
83.269254
83.269254
83.269254
83.269254
83.269254
83.269254
83.269254
83.269254
83.269254
83.269254
83.269254
83.269254
83.269254
83.269254
83.269254
83.269254
83.269254
83.269254
83.269254
83.269254
83.269254
83.269254
83.269254
83.269254
83.269254
83.269254
83.269254
83.269254
83.269254
83.269254
83.269254
83.269254
83.269254
83.269254
83.269254
83.269254
83.269254
83.269254
83.269254
83.269254
83.269254
83.269254
83.269254
83.269254
83.269254
83.269254
83.269254
83.269254
83.269254
83.269254
83.269254
83.269254
83.269254
83.269254
83.269254
83.269254
83.269254
83.269254
83.269254
83.269254
83.269254
83.269254
83.269254
83.269254
83.269254
83.269254
83.269254
83.269254
83.269254
83.269254
83.269254
83.269254
83.269254
83.269254
83.269254
83.269254
83.269254
83.269254
83.269254
83.269254
83.269254
83.269254
83.269254
83.269254
83.269254
83.269254
83.269254
83.269254
83.269254
83.269254
83.269254
83.269254
83.269254
83.269254
83.269254
83.269254
83.269254
83.269254
83.269254
83.269254
83.269254
83.269254
83.269254
83.269254
83.269254
83.269254
83.269254
83.269254
83.269254
83.269254
83.269254
83.269254
83.269254
83.269254
83.269254
83.269254
83.269254
83.269254
83.269254
83.269254
83.269254
83.269254
83.269254
83.269254
83.269254
83.269254
83.269254
83.269254
83.269254
83.269254
83.269254
83.269254
83.269254
83.269254
83.269254
83.269254
83.269254
83.269254
83.269254
83.269254
83.269254
83.269254
83.269254
83.269254
83.269254
83.269254
83.269254
83.269254
83.269254
83.269254
83.269254
83.269254
83.269254
83.269254
83.269254
83.269254
83.269254
83.269254
83.269254
83.269254
83.269254
83.269254
83.269254
83.269254
83.269254
83.269254
83.269254
83.269254
83.269254
83.269254
83.269254
83.269254
83.269254
83.269254
83.269254
83.269254
83.269254
83.269254
83.269254
83.269254
83.269254
83.269254
83.269254
83.269254
83.269254
83.269254
83.269254
83.269254
83.269254
83.269254
83.269254
83.269254
83.269254
83.269254
83.269254
83.269254
83.269254
83.269254
83.269254
83.269254
83.269254
83.269254
83.269254
83.269254
83.269254
83.269254
83.269254
83.269254
83.269254
83.269254
83.269254
83.269254
83.269254
83.269254
83.269254
83.269254
83.269254
83.269254
83.269254
83.269254
83.269254
83.269254
83.269254
83.269254
83.269254
83.269254
83.269254
83.269254
83.269254
83.269254
83.269254
83.269254
83.269254
83.269254
83.269254
83.269254
83.269254
83.269254
83.269254
83.269254
83.269254
83.269254
83.269254
83.269254
83.269254
83.269254
83.269254
83.269254
83.269254
83.269254
83.269254
83.269254
83.269254
83.269254
83.269254
83.269254
83.269254
83.269254
83.269254
83.269254
83.269254
83.269254
83.269254
83.269254
83.269254
83.269254
83.269254
83.269254
83.269254
83.269254
83.269254
83.269254
83.269254
83.269254
83.269254
83.269254
83.269254
83.269254
83.269254
83.269254
83.269254
83.269254
83.269254
83.269254
83.269254
83.269254
83.269254
83.269254
83.269254
83.269254
83.269254
83.269254
83.269254
83.269254
83.269254
83.269254
83.269254
83.269254
83.269254
83.269254
83.269254
83.269254
83.269254
83.269254
83.269254
83.269254
83.269254
83.269254
83.269254
83.269254
83.269254
83.269254
83.269254
83.269254
83.269254
83.269254
83.269254
83.269254
83.269254
83.269254
83.269254
83.269254
83.269254
83.269254
83.269254
83.269254
83.269254
83.269254
83.269254
83.269254
83.269254
83.269254
83.269254
83.269254
83.269254
83.269254
83.269254
83.269254
83.269254
83.269254
83.269254
83.269254
83.269254
83.269254
83.269254
83.269254
83.269254
83.269254
83.269254
83.269254
83.269254
83.269254
83.269254
83.269254
83.269254
83.269254
83.269254
83.269254
83.269254
83.269254
83.269254
83.269254
83.269254
83.269254
83.269254
83.269254
83.269254
83.269254
83.269254
83.269254
83.269254
83.269254
83.269254
83.269254
83.269254
83.269254
83.269254
83.269254
83.269254
83.269254
83.269254
83.269254
83.269254
83.269254
83.269254
83.269254
83.269254
83.269254
83.269254
83.269254
83.269254
83.269254
83.269254
83.269254
83.269254
83.269254
83.269254
83.269254
83.269254
83.269254
83.269254
83.269254
83.269254
83.269254
83.269254
83.269254
83.269254
83.269254
83.269254
83.269254
83.269254
83.269254
83.269254
83.269254
83.269254
83.269254
83.269254
83.269254
83.269254
83.269254
83.269254
83.269254
83.269254
83.269254
83.269254
83.269254
83.269254
83.269254
83.269254
83.269254
83.269254
83.269254
83.269254
83.269254
83.269254
83.269254
83.269254
83.269254
83.269254
83.269254
83.269254
83.269254
83.269254
83.269254
83.269254
83.269254
83.269254
83.269254
83.269254
83.269254
83.269254
83.269254
83.269254
83.269254
83.269254
83.269254
83.269254
83.269254
83.269254
83.269254
83.269254
83.269254
83.269254
83.269254
83.269254
83.269254
83.269254
83.269254
83.269254
83.269254
83.269254
83.269254
83.269254
83.269254
83.269254
83.269254
83.269254
83.269254
83.269254
83.269254
83.269254
83.269254
83.269254
83.269254
83.269254
83.269254
83.269254
83.269254
83.269254
83.269254
83.269254
83.269254
83.269254
83.269254
83.269254
83.269254
83.269254
83.269254
83.269254
83.269254
83.269254
83.269254
83.269254
83.269254
83.269254
83.269254
83.269254
83.269254
83.269254
83.269254
83.269254
83.269254
83.269254
83.269254
83.269254
83.269254
83.269254
83.269254
83.269254
83.269254
83.269254
83.269254
83.269254
83.269254
83.269254
83.269254
83.269254
83.269254
83.269254
83.269254
83.269254
83.269254
83.269254
83.269254
83.269254
83.269254
83.269254
83.269254
83.269254
83.269254
83.269254
83.269254
83.269254
83.269254
83.269254
83.269254
83.269254
83.269254
83.269254
83.269254
83.269254
83.269254
83.269254
83.269254
83.269254
83.269254
83.269254
83.269254
83.269254
83.269254
83.269254
83.269254
83.269254
83.269254
83.269254
83.269254
83.269254
83.269254
83.269254
83.269254
83.269254
83.269254
83.269254
83.269254
83.269254
83.269254
83.269254
83.269254
83.269254
83.269254
83.269254
83.269254
83.269254
83.269254
83.269254
83.269254
83.269254
83.269254
83.269254
83.269254
83.269254
83.269254
83.269254
83.269254
83.269254
83.269254
83.269254
83.269254
83.269254
83.269254
83.269254
83.269254
83.269254
83.269254
83.269254
83.269254
83.269254
83.269254
83.269254
83.269254
83.269254
83.269254
83.269254
83.269254
)


887
(
0
0
0
0
0
0
0
0
0
0
0
218.93877
218.93877
218.93877
218.93877
218.93877
218.93877
218.93877
218.93877
218.93877
218.93877
218.93877
218.93877
218.93877
218.93877
218.93877
218.93877
218.93877
218.93877
218.93877
218.93877
218.93877
218.93877
218.93877
218.93877
218.93877
218.93877
218.93877
218.93877
218.93877
218.93877
218.93877
218.93877
218.93877
218.93877
218.93877
218.93877
218.93877
218.93877
218.93877
218.93877
218.93877
218.93877
218.93877
218.93877
218.93877
218.93877
218.93877
218.93877
218.93877
218.93877
218.93877
218.93877
218.93877
218.93877
218.93877
218.93877
218.93877
218.93877
218.93877
218.93877
218.93877
218.93877
218.93877
218.93877
218.93877
218.93877
218.93877
218.93877
218.93877
218.93877
218.93877
218.93877
218.93877
218.93877
218.93877
218.93877
218.93877
218.93877
218.93877
218.93877
218.93877
218.93877
218.93877
218.93877
218.93877
218.93877
218.93877
218.93877
0
0
0
0
0
0
0
0
0
0
0
0
0
0
0
0
0
0
0
0
0
0
0
0
0
0
0
0
0
0
0
0
136.63498
136.63498
136.63498
136.63498
136.63498
136.63498
136.63498
136.63498
136.63498
136.63498
136.63498
136.63498
136.63498
136.63498
136.63498
136.63498
136.63498
136.63498
136.63498
136.63498
136.63498
136.63498
136.63498
136.63498
136.63498
136.63498
136.63498
136.63498
136.63498
136.63498
136.63498
136.63498
136.63498
136.63498
136.63498
136.63498
136.63498
136.63498
136.63498
136.63498
136.63498
136.63498
136.63498
136.63498
136.63498
136.63498
136.63498
136.63498
136.63498
136.63498
136.63498
136.63498
136.63498
136.63498
136.63498
136.63498
136.63498
136.63498
136.63498
136.63498
136.63498
136.63498
136.63498
136.63498
136.63498
136.63498
136.63498
136.63498
136.63498
136.63498
136.63498
136.63498
136.63498
136.63498
136.63498
136.63498
136.63498
136.63498
136.63498
136.63498
136.63498
136.63498
136.63498
136.63498
136.63498
136.63498
136.63498
136.63498
136.63498
136.63498
136.63498
136.63498
136.63498
136.63498
136.63498
136.63498
136.63498
136.63498
136.63498
136.63498
136.63498
136.63498
136.63498
136.63498
136.63498
136.63498
136.63498
136.63498
136.63498
136.63498
136.63498
136.63498
136.63498
136.63498
136.63498
136.63498
136.63498
136.63498
136.63498
136.63498
136.63498
136.63498
136.63498
136.63498
136.63498
136.63498
136.63498
136.63498
136.63498
136.63498
136.63498
136.63498
136.63498
136.63498
136.63498
136.63498
136.63498
136.63498
136.63498
136.63498
136.63498
136.63498
136.63498
136.63498
136.63498
136.63498
136.63498
136.63498
136.63498
136.63498
136.63498
136.63498
136.63498
136.63498
136.63498
136.63498
136.63498
136.63498
136.63498
136.63498
136.63498
136.63498
136.63498
136.63498
136.63498
136.63498
136.63498
136.63498
136.63498
136.63498
136.63498
136.63498
136.63498
136.63498
136.63498
136.63498
136.63498
136.63498
136.63498
136.63498
136.63498
136.63498
136.63498
136.63498
136.63498
136.63498
136.63498
136.63498
136.63498
136.63498
136.63498
136.63498
136.63498
136.63498
136.63498
136.63498
136.63498
136.63498
136.63498
136.63498
136.63498
136.63498
136.63498
136.63498
136.63498
136.63498
136.63498
136.63498
136.63498
136.63498
136.63498
136.63498
136.63498
136.63498
136.63498
136.63498
136.63498
136.63498
136.63498
136.63498
136.63498
136.63498
136.63498
136.63498
136.63498
136.63498
136.63498
136.63498
136.63498
136.63498
136.63498
136.63498
136.63498
136.63498
136.63498
136.63498
136.63498
136.63498
136.63498
136.63498
136.63498
136.63498
136.63498
136.63498
136.63498
136.63498
136.63498
136.63498
136.63498
136.63498
136.63498
136.63498
136.63498
136.63498
136.63498
136.63498
136.63498
136.63498
136.63498
136.63498
136.63498
136.63498
136.63498
136.63498
136.63498
136.63498
136.63498
136.63498
136.63498
136.63498
136.63498
136.63498
136.63498
136.63498
136.63498
136.63498
136.63498
136.63498
136.63498
136.63498
136.63498
136.63498
136.63498
136.63498
136.63498
136.63498
136.63498
136.63498
136.63498
136.63498
136.63498
136.63498
136.63498
136.63498
136.63498
136.63498
136.63498
136.63498
136.63498
136.63498
136.63498
136.63498
136.63498
136.63498
136.63498
136.63498
136.63498
136.63498
136.63498
136.63498
136.63498
136.63498
136.63498
136.63498
136.63498
136.63498
136.63498
136.63498
136.63498
136.63498
136.63498
136.63498
136.63498
136.63498
136.63498
136.63498
136.63498
136.63498
136.63498
136.63498
136.63498
136.63498
136.63498
136.63498
136.63498
136.63498
136.63498
136.63498
136.63498
136.63498
136.63498
136.63498
136.63498
136.63498
136.63498
136.63498
136.63498
136.63498
136.63498
136.63498
136.63498
136.63498
136.63498
136.63498
136.63498
136.63498
136.63498
136.63498
136.63498
136.63498
136.63498
136.63498
136.63498
136.63498
136.63498
136.63498
136.63498
136.63498
136.63498
136.63498
136.63498
136.63498
136.63498
136.63498
136.63498
136.63498
136.63498
136.63498
136.63498
136.63498
136.63498
136.63498
136.63498
136.63498
136.63498
136.63498
136.63498
136.63498
136.63498
136.63498
136.63498
136.63498
136.63498
136.63498
136.63498
136.63498
136.63498
136.63498
136.63498
136.63498
136.63498
136.63498
136.63498
136.63498
136.63498
136.63498
136.63498
136.63498
136.63498
136.63498
136.63498
136.63498
136.63498
136.63498
136.63498
136.63498
136.63498
136.63498
136.63498
136.63498
136.63498
136.63498
136.63498
136.63498
136.63498
136.63498
136.63498
136.63498
136.63498
136.63498
136.63498
136.63498
136.63498
136.63498
136.63498
136.63498
136.63498
136.63498
136.63498
136.63498
136.63498
136.63498
136.63498
136.63498
136.63498
136.63498
136.63498
136.63498
136.63498
136.63498
136.63498
136.63498
136.63498
136.63498
136.63498
136.63498
136.63498
136.63498
136.63498
136.63498
136.63498
136.63498
136.63498
136.63498
136.63498
136.63498
136.63498
136.63498
136.63498
136.63498
136.63498
136.63498
136.63498
136.63498
136.63498
136.63498
136.63498
136.63498
136.63498
136.63498
136.63498
136.63498
136.63498
136.63498
136.63498
136.63498
136.63498
136.63498
136.63498
136.63498
136.63498
136.63498
136.63498
136.63498
136.63498
136.63498
136.63498
136.63498
136.63498
136.63498
136.63498
136.63498
136.63498
136.63498
136.63498
136.63498
136.63498
136.63498
136.63498
136.63498
136.63498
136.63498
136.63498
136.63498
136.63498
136.63498
136.63498
136.63498
136.63498
136.63498
136.63498
136.63498
136.63498
136.63498
136.63498
136.63498
136.63498
136.63498
136.63498
136.63498
136.63498
136.63498
136.63498
136.63498
136.63498
136.63498
136.63498
136.63498
136.63498
136.63498
136.63498
136.63498
136.63498
136.63498
136.63498
136.63498
136.63498
136.63498
136.63498
136.63498
136.63498
136.63498
136.63498
136.63498
136.63498
136.63498
136.63498
136.63498
136.63498
136.63498
136.63498
136.63498
136.63498
136.63498
136.63498
136.63498
136.63498
136.63498
136.63498
136.63498
136.63498
136.63498
136.63498
136.63498
136.63498
136.63498
136.63498
136.63498
136.63498
136.63498
136.63498
136.63498
136.63498
136.63498
136.63498
136.63498
136.63498
136.63498
136.63498
136.63498
136.63498
136.63498
136.63498
136.63498
136.63498
136.63498
136.63498
136.63498
136.63498
136.63498
136.63498
136.63498
136.63498
136.63498
136.63498
136.63498
136.63498
136.63498
136.63498
136.63498
136.63498
136.63498
136.63498
136.63498
136.63498
136.63498
136.63498
136.63498
136.63498
136.63498
136.63498
136.63498
136.63498
136.63498
136.63498
136.63498
136.63498
136.63498
136.63498
136.63498
136.63498
136.63498
136.63498
136.63498
136.63498
136.63498
136.63498
136.63498
136.63498
136.63498
136.63498
136.63498
136.63498
136.63498
136.63498
136.63498
136.63498
136.63498
136.63498
136.63498
136.63498
136.63498
136.63498
136.63498
136.63498
136.63498
136.63498
136.63498
136.63498
136.63498
136.63498
136.63498
136.63498
136.63498
136.63498
136.63498
136.63498
136.63498
136.63498
136.63498
136.63498
136.63498
136.63498
136.63498
136.63498
136.63498
136.63498
136.63498
136.63498
136.63498
136.63498
136.63498
136.63498
136.63498
136.63498
136.63498
136.63498
136.63498
136.63498
136.63498
136.63498
136.63498
136.63498
136.63498
136.63498
136.63498
136.63498
136.63498
136.63498
136.63498
136.63498
136.63498
136.63498
136.63498
136.63498
136.63498
136.63498
136.63498
136.63498
136.63498
136.63498
136.63498
136.63498
136.63498
136.63498
136.63498
136.63498
136.63498
136.63498
136.63498
136.63498
136.63498
136.63498
136.63498
136.63498
136.63498
136.63498
136.63498
136.63498
136.63498
136.63498
136.63498
136.63498
136.63498
136.63498
136.63498
136.63498
136.63498
136.63498
136.63498
136.63498
136.63498
136.63498
136.63498
136.63498
136.63498
136.63498
136.63498
136.63498
136.63498
136.63498
136.63498
136.63498
136.63498
136.63498
136.63498
)


887
(
0
0
0
0
0
0
0
0
0
0
0
180.4505
180.4505
180.4505
180.4505
180.4505
180.4505
180.4505
180.4505
180.4505
180.4505
180.4505
180.4505
180.4505
180.4505
180.4505
180.4505
180.4505
180.4505
180.4505
180.4505
180.4505
180.4505
180.4505
180.4505
180.4505
180.4505
180.4505
180.4505
180.4505
180.4505
180.4505
180.4505
180.4505
180.4505
180.4505
180.4505
180.4505
180.4505
180.4505
180.4505
180.4505
180.4505
180.4505
180.4505
180.4505
180.4505
180.4505
180.4505
180.4505
180.4505
180.4505
180.4505
180.4505
180.4505
180.4505
180.4505
180.4505
180.4505
180.4505
180.4505
180.4505
180.4505
180.4505
180.4505
180.4505
180.4505
180.4505
180.4505
180.4505
180.4505
180.4505
180.4505
180.4505
180.4505
180.4505
180.4505
180.4505
180.4505
180.4505
180.4505
180.4505
180.4505
180.4505
180.4505
180.4505
180.4505
180.4505
180.4505
0
0
0
0
0
0
0
0
0
0
0
0
0
0
0
0
0
0
0
0
0
0
0
0
0
0
0
0
0
0
0
0
178.75054
178.75054
178.75054
178.75054
178.75054
178.75054
178.75054
178.75054
178.75054
178.75054
178.75054
178.75054
178.75054
178.75054
178.75054
178.75054
178.75054
178.75054
178.75054
178.75054
178.75054
178.75054
178.75054
178.75054
178.75054
178.75054
178.75054
178.75054
178.75054
178.75054
178.75054
178.75054
178.75054
178.75054
178.75054
178.75054
178.75054