/*--------------------------------*- C++ -*----------------------------------*\
  =========                 |
  \\      /  F ield         | OpenFOAM: The Open Source CFD Toolbox
   \\    /   O peration     | Website:  https://openfoam.org
    \\  /    A nd           | Version:  8
     \\/     M anipulation  |
\*---------------------------------------------------------------------------*/
/*   Windows 32 and 64 bit porting by blueCAPE: http://www.bluecape.com.pt   *\
|  Based on Windows porting (2.0.x v4) by Symscape: http://www.symscape.com   |
\*---------------------------------------------------------------------------*/
FoamFile
{
    version     2.0;
    format      ascii;
    class       polyBoundaryMesh;
    location    "constant/tower/polyMesh";
    object      boundary;
}
// * * * * * * * * * * * * * * * * * * * * * * * * * * * * * * * * * * * * * //

6
(
    buildings_to_air
    {
        type            mappedWall;
        inGroups        List<word> 
2
(
wall
mappedPatch
)
;
        nFaces          1767;
        startFace       41883;
        sampleMode      nearestPatchFace;
        sampleRegion    air;
        samplePatch     tower;
    }
    interior
    {
        type            patch;
        nFaces          1765;
        startFace       43650;
    }
    procBoundary13to0
    {
        type            processor;
        inGroups        List<word> 1(processor);
        nFaces          100;
        startFace       45415;
        matchTolerance  0.0001;
        myProcNo        13;
        neighbProcNo    0;
    }
    procBoundary13to1
    {
        type            processor;
        inGroups        List<word> 1(processor);
        nFaces          50;
        startFace       45515;
        matchTolerance  0.0001;
        myProcNo        13;
        neighbProcNo    1;
    }
    procBoundary13to12
    {
        type            processor;
        inGroups        List<word> 1(processor);
        nFaces          420;
        startFace       45565;
        matchTolerance  0.0001;
        myProcNo        13;
        neighbProcNo    12;
    }
    procBoundary13to14
    {
        type            processor;
        inGroups        List<word> 1(processor);
        nFaces          422;
        startFace       45985;
        matchTolerance  0.0001;
        myProcNo        13;
        neighbProcNo    14;
    }
)

// ************************************************************************* //
