/*--------------------------------*- C++ -*----------------------------------*\
  =========                 |
  \\      /  F ield         | OpenFOAM: The Open Source CFD Toolbox
   \\    /   O peration     | Website:  https://openfoam.org
    \\  /    A nd           | Version:  8
     \\/     M anipulation  |
\*---------------------------------------------------------------------------*/
/*   Windows 32 and 64 bit porting by blueCAPE: http://www.bluecape.com.pt   *\
|  Based on Windows porting (2.0.x v4) by Symscape: http://www.symscape.com   |
\*---------------------------------------------------------------------------*/
FoamFile
{
    version     2.0;
    format      ascii;
    class       scalarListList;
    location    "constant/air";
    object      divqrsw;
}
// * * * * * * * * * * * * * * * * * * * * * * * * * * * * * * * * * * * * * //


5
(

6092
(
0
0
0
0
0
0
-139.76941
0
-151.81915
0
0
0
-115.38745
0
-122.75373
0
0
0
-163.78331
0
0
-172.00268
0
0
0
0
0
-143.55509
0
0
0
-149.95848
0
0
0
0
0
0
-131.1967
0
0
0
0
0
-143.84503
0
-91.177356
0
0
-119.38945
0
0
0
-74.02993
0
0
0
0
0
0
0
0
0
0
0
0
0
0
0
0
0
0
0
0
0
-68.002042
0
0
0
0
0
0
-87.725717
0
0
0
0
0
0
0
0
0
0
0
0
0
0
0
0
0
0
0
0
0
0
0
0
0
0
0
0
0
0
0
0
0
0
0
0
0
0
0
0
0
0
0
0
0
0
0
0
0
0
0
0
0
0
0
0
0
0
0
0
0
0
0
0
0
0
0
0
0
0
0
0
-157.45322
0
0
0
0
0
0
0
0
-37.440207
0
0
0
0
0
0
0
0
0
0
0
0
0
0
-189.50365
-77.236691
0
-76.319283
0
0
0
0
0
-78.182448
0
-163.36086
-186.66345
-180.48394
-79.119362
0
0
0
0
0
0
0
0
0
-67.969908
0
0
-55.710904
0
0
0
0
0
0
0
-135.34198
0
0
0
0
0
0
0
-142.16628
-197.8115
-103.93584
0
-82.010307
-196.46788
-94.946101
-123.46925
-20.792996
-79.291477
-108.5226
-120.71223
-92.010655
-53.614751
-186.55405
-77.597961
-159.06795
-49.473219
0
0
0
0
0
-119.329
-39.724625
0
-17.712493
-63.930552
0
0
0
0
-70.860335
-42.045301
0
0
0
-50.680974
-199.4717
0
-86.269406
0
-161.56376
0
0
-90.251944
-54.269044
0
0
-119.61735
-111.5618
0
-75.482068
-42.368773
-18.166025
-58.084441
0
0
-197.71226
0
-192.87178
0
0
0
0
0
0
-208.66324
-128.58662
0
0
-207.08816
0
0
0
-129.1819
0
0
0
0
0
0
-90.008568
0
0
0
0
0
0
0
0
-87.589432
-49.390551
0
0
0
0
0
0
0
0
0
0
0
0
0
0
0
0
0
0
0
0
0
0
-69.920493
-144.23624
-161.59851
0
-178.30874
0
0
-65.245501
-177.29435
-50.326184
-111.69715
-163.13761
-69.073818
-45.550549
0
0
0
0
0
0
0
-56.856828
0
-162.65084
-107.31283
-160.16398
0
-41.140882
0
-75.217741
-48.258134
-95.049421
-60.51538
0
-46.240805
0
0
0
0
0
0
0
0
0
0
0
-53.086072
0
0
0
0
0
0
0
0
0
0
0
-90.085988
0
-56.931381
-44.593879
0
0
0
0
0
0
0
0
0
0
0
0
0
0
0
0
0
0
-116.70912
0
0
0
0
0
0
0
0
0
0
0
0
0
0
0
0
0
0
0
0
0
0
0
0
0
0
0
0
0
0
0
0
0
0
0
0
0
0
0
0
0
0
0
0
0
0
0
0
0
0
0
0
0
0
0
0
0
0
0
0
0
0
0
0
0
0
0
0
0
0
0
0
0
0
0
0
0
0
0
0
0
0
0
0
0
0
0
0
0
0
-154.73265
0
0
0
0
0
0
0
0
0
0
0
0
0
0
0
0
0
0
0
0
0
0
0
0
0
0
0
0
0
0
0
0
0
0
0
0
0
0
0
0
0
0
0
0
0
0
0
0
0
0
0
0
0
0
0
0
0
0
0
0
0
0
0
0
0
0
0
0
0
0
0
0
0
0
0
0
0
0
0
0
0
0
0
0
0
0
0
0
0
0
0
0
0
0
0
0
0
0
0
0
0
0
0
0
0
0
0
0
0
0
0
0
0
0
0
0
0
0
0
0
0
0
0
0
0
0
0
0
0
0
0
0
0
0
0
0
0
0
0
0
0
0
0
0
0
0
0
0
0
0
0
0
0
0
0
0
0
0
0
0
0
0
0
0
0
0
0
0
0
0
0
0
0
0
0
0
0
0
-183.76981
-51.809068
-69.747791
0
0
0
0
0
0
0
0
0
0
0
0
0
0
0
0
0
0
0
0
0
0
-114.1943
-117.27694
-115.45667
-150.10962
-136.0104
-91.775266
-133.37573
0
0
0
0
0
0
0
-162.12499
-129.92059
-156.86428
-162.19225
-152.42544
-137.67296
-169.46029
0
0
0
0
0
0
0
0
-96.035274
-86.962976
-85.05022
0
0
0
0
-95.16568
-130.30414
-89.054041
-103.64651
0
-93.265601
-180.74352
-200.84263
-170.05944
0
0
0
0
0
0
0
0
-127.57361
-84.467841
0
-95.937934
-71.415071
-28.109177
-50.531393
0
-177.06645
-173.87521
-166.37865
-145.65545
-188.33938
-144.86934
-188.07478
0
0
0
0
0
0
0
0
0
0
0
0
0
0
-151.73743
0
0
-150.07001
0
0
0
0
0
0
0
0
-68.488551
0
-47.862326
-29.491771
-25.263324
-44.104656
-17.490972
0
-195.21873
-98.437922
0
0
0
0
0
0
0
0
0
-161.97887
0
0
-88.027155
-199.41326
-205.65584
-99.675353
0
0
0
0
0
0
0
0
0
0
0
0
0
0
0
0
0
0
0
0
0
0
0
0
0
0
0
0
0
0
0
0
0
0
0
-99.172459
-111.69293
-138.54048
-105.15897
-125.39211
-91.466241
-108.53355
0
0
0
0
0
0
0
-113.27534
-107.59233
-121.79124
0
-142.4968
0
0
-125.92389
-160.728
-114.40334
-130.21802
-145.32606
-106.25469
-134.32476
-86.53285
-68.545115
-113.57592
-94.396281
-116.33548
-73.026742
-82.086431
0
0
0
0
0
0
0
0
0
0
0
0
0
0
-80.396365
-101.49545
-96.844544
-108.92308
-93.37414
-85.568445
-89.095491
0
0
0
0
0
0
0
-63.147793
0
-78.913978
-61.33494
-67.374598
-66.311435
0
0
0
0
0
0
0
0
0
0
0
0
0
0
0
0
0
0
0
0
0
0
0
0
0
0
0
0
0
0
0
0
0
0
0
0
0
0
0
0
0
0
0
0
0
-111.7089
0
0
0
0
0
0
0
0
0
0
0
0
0
0
0
0
0
0
0
0
0
0
0
0
0
0
0
0
0
0
0
0
0
0
0
0
0
0
0
0
0
0
0
0
0
0
0
0
0
0
0
0
0
0
0
0
0
0
0
0
0
0
0
0
0
0
0
0
0
0
0
0
0
0
0
0
0
0
0
0
0
0
-151.49601
-176.82474
-159.6727
-123.01464
-185.9176
-123.99088
-143.62717
0
0
0
0
0
0
0
0
0
0
0
0
0
0
0
0
0
0
0
0
0
0
0
0
-18.092596
0
0
0
0
0
0
0
0
0
0
0
0
0
0
0
0
0
0
0
0
0
0
0
0
0
0
0
0
0
0
0
0
-14.952556
0
0
0
0
0
0
0
0
0
0
0
0
0
0
0
0
-100.41416
0
0
-140.10611
-167.63735
-177.57264
-185.96174
-156.39096
-154.86387
-168.57093
-100.88033
0
-127.73394
0
-112.95995
0
-119.60636
0
-62.701804
-86.33789
-66.658013
0
0
0
0
0
-97.3534
0
0
0
0
0
0
0
0
0
0
0
-90.728378
-138.78834
-127.37098
-79.600736
-87.405209
-145.74241
-128.39756
-118.92684
-98.209426
0
0
-112.54835
-104.40052
0
-170.42933
-162.23337
-185.59884
-148.30327
-145.89886
-177.23425
-179.44135
-180.34323
-177.55908
-184.46878
-177.1968
-170.27058
-186.30912
-176.03901
-191.66431
-176.19651
-199.73579
-182.63218
-195.05286
-200.81013
-177.02975
-130.74832
-79.099367
-77.639026
-128.33745
-123.38512
-82.37223
-127.78044
0
-124.80615
0
0
-109.54595
0
-130.75565
0
0
0
0
0
0
0
0
-58.760107
-62.381719
-66.546182
0
-56.340528
-65.855763
0
0
0
0
0
0
0
0
-62.701128
-58.859803
-51.253884
-53.887337
-64.073294
0
0
0
0
0
0
0
0
0
0
0
0
0
0
0
0
0
0
0
0
0
0
0
0
0
0
0
0
0
0
-139.37807
-91.737792
-109.27031
-113.81207
-98.537628
0
0
0
0
0
0
0
0
0
0
0
0
0
0
0
0
0
0
0
0
0
0
-172.59314
-114.96746
-143.52908
-189.79389
-167.9563
-161.55522
-105.875
-134.29632
-133.04094
0
0
-150.67554
0
0
0
0
-46.463406
0
-58.794941
-42.983047
0
0
-129.19665
-54.580711
-59.240114
-89.996125
-162.71533
-141.65535
-178.92547
-157.57736
-144.14546
-150.16775
-156.38507
-93.779183
-89.524714
-56.925376
-68.255024
-23.968415
-44.222159
0
-61.785773
-46.797239
0
-80.941543
-51.854461
-61.384324
-160.35825
-158.08097
-164.71187
-146.01201
-149.38484
-141.57851
-183.76905
-143.70696
-100.76307
-131.70194
-99.797911
-87.905085
-112.00004
-70.237041
-150.59444
-94.402197
-144.83884
-99.194792
-62.563094
-119.57611
-67.870224
-90.387252
-60.480267
-57.322079
-106.34819
-86.188666
-115.30685
-60.637648
-132.58018
-185.60696
-137.77608
-180.74615
-130.21918
-132.54654
-182.42445
-135.13167
-152.39047
-130.83069
-181.56707
-130.71835
-137.31806
-176.15004
0
0
0
-105.94589
0
0
0
0
0
0
0
0
0
0
0
0
0
0
0
0
0
0
0
0
0
0
0
0
0
0
0
0
0
0
0
0
0
0
0
0
0
0
0
-119.25822
0
0
0
0
0
-32.36919
-46.266855
-33.824214
-21.064679
0
-65.192049
-25.332078
0
0
0
0
0
0
0
-42.104959
0
-136.7461
-61.367679
-87.075472
0
-27.287612
0
-38.677193
-10.678753
-39.743577
-23.770334
0
-37.831486
-48.281798
-115.73285
-45.357175
-56.35602
-74.987738
-29.144266
0
0
0
0
-73.965727
0
-24.063775
-16.783148
0
0
0
-20.349451
0
0
0
0
0
0
0
0
0
0
0
0
0
-19.078835
0
0
0
0
0
-48.234297
0
-23.025832
0
-47.515742
0
-19.381189
0
0
-21.868317
0
0
0
0
0
0
0
0
0
0
0
0
0
0
0
0
-15.838839
0
0
-18.055101
0
-132.98274
-55.426524
-44.497294
-104.12775
-96.043867
-65.490594
-81.15421
-149.51325
-104.00642
-156.26305
-188.66105
-156.91926
-139.67818
-111.73293
-145.76211
0
0
0
0
0
-159.04879
-161.51495
-174.60075
-105.82489
-145.45791
-66.404546
-114.46264
-136.24912
-164.65156
-96.921966
-91.047647
-145.07586
0
0
0
-92.812136
-142.18951
-130.16365
-181.38105
0
-115.95031
-69.420516
-100.58324
-138.71972
0
0
0
-111.58565
-128.95002
0
0
0
0
0
0
0
0
-145.73584
0
0
0
-63.092708
-121.58713
0
0
-61.698326
0
-109.08727
-118.11153
0
0
0
0
0
0
0
0
0
0
0
0
0
0
0
0
0
-114.16128
-120.33533
0
-125.56771
0
0
-75.231424
-85.058639
-55.920402
-41.778331
-69.387105
-52.905534
-52.709663
0
-30.235887
-43.349279
-25.369482
0
-21.892414
-14.557377
-82.41157
-40.163665
-51.555972
-29.99383
-49.720304
-49.804294
-27.54285
-29.102258
-48.058179
-39.100687
-22.005717
-42.534761
-24.149902
-25.749034
-25.865778
-22.056318
-37.626222
-11.926902
-34.428445
-23.313532
-16.106278
-34.483465
-60.839213
-42.049392
-42.573342
-45.512087
-44.694078
-31.564293
-22.736147
0
-17.401508
-9.9144786
-19.608867
-20.362927
-13.325797
0
0
0
-203.95352
-87.330004
-109.64705
0
0
0
-61.192228
0
0
0
0
0
-143.10077
0
0
-77.115534
-121.45277
-185.89339
0
0
0
0
0
0
0
0
0
0
0
0
0
0
0
0
0
0
0
0
0
0
-97.483577
-207.47688
-203.6574
-99.104478
-208.11335
-111.22597
-98.731428
-85.490806
-125.30786
0
-186.3732
-188.97191
-87.301858
0
0
0
0
0
0
0
0
0
0
0
0
0
0
0
0
-73.104597
-201.47681
-86.877436
-90.913264
0
-91.055524
0
0
0
0
0
0
0
0
0
0
0
0
0
0
0
0
-184.80187
0
-81.313426
0
0
0
0
0
0
0
0
0
0
0
0
0
-84.53335
0
0
0
0
0
0
0
0
0
0
0
0
0
0
0
0
0
0
0
0
0
0
0
0
-87.345478
0
0
0
0
0
0
0
0
0
-87.204959
-97.782505
-99.856718
-75.417777
-78.797419
-110.93005
-81.548889
-108.219
-140.627
-140.24971
-107.947
-72.197149
-77.96332
0
0
0
-70.214679
-78.0392
-93.888121
-112.38052
0
-124.613
0
0
0
0
0
0
0
0
0
0
-64.164375
0
0
0
0
0
0
0
0
0
0
0
0
0
0
0
0
0
0
0
0
0
0
0
0
0
0
0
0
0
0
0
-104.89208
-119.30114
-132.24242
-98.305102
-137.63862
-125.34862
-174.08665
-126.18069
-162.52197
-158.33076
-102.15847
-129.01746
-146.45125
-163.53002
0
-157.81128
-129.82707
0
0
0
0
0
0
0
0
-153.13127
-168.25681
-190.70082
-169.25688
-184.34109
-172.86215
-146.01747
0
0
0
0
0
0
0
0
0
0
0
0
-116.14542
0
-54.792064
-99.075297
-109.72759
-67.955114
-112.81479
-58.1909
-94.200695
-144.17138
-171.70575
-169.55316
-161.89593
-158.23651
-158.95765
-150.2962
-89.975996
-82.828656
-55.041222
-48.926361
-53.332849
-78.040889
-95.08028
-117.92477
-117.37022
-129.56476
-93.292058
-134.31083
-111.75186
-97.974992
-139.31794
-153.59276
-166.3677
-147.03841
-157.45209
-151.58292
-132.37419
-101.80182
-68.08569
-115.53258
-61.22861
-113.23356
-59.475545
-105.72514
-49.09846
-85.280479
-47.083529
-70.004751
-51.693986
-81.011175
-72.988308
0
0
0
0
0
0
0
0
0
0
0
0
0
0
0
0
0
0
0
0
0
0
0
0
0
0
0
0
0
0
0
0
0
0
0
0
-47.306177
0
-74.0409
-100.98728
-87.101966
-85.584784
0
0
0
-55.453357
0
0
0
-103.95726
-138.0064
-162.10856
-117.74074
-141.97853
-123.60027
-98.359233
-93.284417
-99.57385
-125.35266
-86.60933
-121.91209
-103.57338
-78.414934
-111.59335
-144.43647
-159.63231
-142.94103
-141.09528
-131.82724
-122.81814
0
0
0
-64.627812
0
0
0
-43.003847
0
0
-63.770346
-64.440353
-73.821145
-56.522303
0
0
-64.605762
-65.80503
-66.818972
0
-63.539182
-72.959987
-86.09783
-69.435311
-72.457044
-69.210219
-79.393298
-76.734573
-66.235152
-73.179027
-50.043587
-47.050378
-68.430026
-68.553416
-50.912764
-75.539241
-100.85489
-79.284997
-79.846227
-86.03294
-83.537012
-71.259384
-69.610277
-63.570841
-64.805129
-67.036563
-66.217493
-73.264176
-65.950545
0
-64.985736
0
0
0
-65.768978
0
-51.810559
-64.014957
-46.325912
-63.545646
-65.370799
-51.421356
-62.081899
0
0
0
0
0
0
0
0
0
0
0
0
0
0
0
0
-42.62567
0
0
0
0
0
-61.867851
-48.095705
-48.233395
0
0
0
0
0
0
0
0
0
0
0
0
0
0
0
0
0
0
0
0
0
0
0
0
0
0
0
0
0
0
0
0
0
0
0
0
-63.321062
0
0
0
0
0
0
0
0
-65.550887
-84.231108
-75.28073
-76.020982
-71.05737
-70.912467
-68.610969
-58.560219
-52.455609
-49.07239
0
-57.466905
0
0
-61.60666
-61.089396
-63.60012
-53.188793
-60.734674
-64.01136
-57.389816
0
0
0
-58.769324
-60.849454
-56.463333
-60.714435
0
0
0
0
0
0
0
0
0
0
0
0
0
0
0
0
0
0
0
0
0
0
0
0
0
0
0
0
0
0
0
0
0
0
0
0
-94.262118
-80.475193
-89.60093
0
0
0
0
0
0
0
0
0
0
0
0
0
0
0
0
0
0
0
0
0
0
0
0
0
0
0
0
0
0
0
0
0
0
0
0
0
0
0
0
0
0
0
0
0
0
0
0
0
0
0
0
0
0
0
0
0
0
0
0
0
0
0
0
0
0
0
0
0
0
0
0
0
0
-136.10872
0
0
0
0
0
0
0
0
0
0
0
0
0
0
0
0
0
0
0
0
0
0
0
0
0
0
0
0
0
0
0
0
0
-160.76727
-182.13366
-164.61734
-187.68505
-166.80694
-189.29074
-155.2407
-127.92992
-145.89953
-158.39773
-113.69379
-105.76653
-87.941504
0
-57.21879
-87.573291
-100.97498
0
-88.531
0
-79.083912
0
-112.73285
-117.2582
-62.705106
0
-118.63354
-109.01064
0
-97.374881
0
-109.99348
0
-138.78293
-174.44074
-154.54997
-163.68521
0
0
0
0
0
0
0
0
0
0
0
0
0
0
0
0
0
0
0
0
0
0
0
0
0
0
0
0
0
0
0
0
0
0
0
0
0
0
0
0
0
0
0
0
0
0
0
0
0
-142.76094
-162.63384
-151.17057
-167.52909
-187.13608
-173.572
-168.74707
-53.889965
0
0
-57.457736
0
-49.693907
0
-174.64479
-170.18999
-174.86919
-178.38436
-190.76619
-176.3895
-190.71545
-46.893003
0
-40.498125
-35.900474
0
-42.506107
-28.816834
-123.60846
-116.65334
-104.64688
-135.50053
-171.82046
-151.40616
-148.39585
-157.02146
-119.08868
-122.60846
-151.41023
-177.07569
-183.49297
-149.34411
0
0
0
0
0
0
0
0
0
0
0
0
0
0
0
-35.223528
-32.881361
-29.959668
-29.411726
-26.987765
-27.198469
0
0
0
0
0
0
0
0
0
0
0
0
0
0
-159.29985
-147.7152
-169.76696
-153.75089
-126.5329
-135.67326
-141.62822
-180.28555
-200.18478
-181.84129
-188.10662
-180.87357
-178.74249
-192.96934
-36.681162
0
-29.676957
0
-34.753687
-30.76548
0
-94.971589
-100.87664
-85.605137
-73.542914
-107.10361
-89.52523
-76.930383
-155.90312
-161.14529
-185.96853
-184.27182
-182.48496
-164.96781
-147.12336
-133.68503
-114.04941
-111.53654
-98.316021
-128.22928
-119.27876
-117.35937
-110.85977
-133.68635
-126.10116
-112.72139
-109.30683
-121.6794
-98.88506
-32.447007
-21.722317
-28.422108
0
-32.533321
-28.823947
-23.264679
-132.35865
-139.45611
-158.08392
-172.0331
-130.29849
-155.6235
-155.75174
-110.81238
-92.146715
-109.78759
-96.663809
-80.996163
-98.024068
-80.646678
-65.133302
-56.529041
-52.354096
-65.886076
-63.612637
-68.990991
-53.479546
-172.53466
-156.91988
-165.92066
-180.35127
-172.19864
-165.62672
-179.20689
-52.078357
-47.611414
-44.638676
-62.643706
-40.842674
-57.692689
-59.551692
0
-123.81326
0
0
0
-104.65221
0
-33.54779
-41.471482
-37.073198
-32.202989
-30.612303
-40.673345
-33.921979
-20.069441
0
-25.004637
-14.763351
-25.088754
-20.905328
0
0
0
0
0
0
0
0
0
0
0
-9.2595521
0
-54.288024
0
0
-42.845053
-62.473494
-57.596882
-48.099369
-35.234217
-46.475734
-41.313542
-33.084983
-31.569475
-47.339547
-35.864
0
0
0
0
0
0
0
-60.825006
-51.22966
-47.727668
-62.749139
-62.185874
-59.580356
-50.105161
-167.42398
-167.69052
-184.8352
-196.94286
-170.31793
-180.54653
-167.99712
0
0
0
0
0
-148.38107
-166.26401
-181.84065
-134.24949
-171.88062
-140.44934
-151.55886
-102.47267
0
0
0
-96.18201
-115.57542
0
-111.14156
0
-100.87932
-93.206229
-79.889253
-98.790344
-77.536861
-74.789381
-59.025217
-54.322141
-67.543751
-72.391864
-67.122401
-60.97347
-84.615562
-118.05816
-123.88773
0
-124.00395
-84.068556
-76.309678
-99.39547
-101.45848
-90.380491
-79.444217
-97.85305
-87.753424
-88.807821
0
0
0
0
0
0
0
-78.262475
-60.447414
-65.426493
-56.7885
-66.080283
-68.214034
-52.877063
-34.865619
-44.980308
-42.249689
-33.869731
-43.025853
-34.292391
-35.534292
-22.903309
-19.401943
-24.784367
-16.011305
-25.642414
-21.63525
-17.521667
-10.568669
0
0
0
-9.7320067
0
0
-157.2758
-202.17843
-172.40318
-164.5027
-179.13221
-143.69568
-175.44958
-98.201474
-150.37341
-164.95343
-150.41737
-127.99097
-128.06091
-116.35628
-104.00596
0
0
-104.48764
-102.8977
-134.10922
0
-187.78245
-209.9011
-217.26389
-174.79167
-218.84161
-181.00728
-185.34704
-137.45868
-128.28979
-98.295089
-166.66263
-166.69576
-135.63058
-99.487675
-140.89247
-163.26612
-212.85724
-164.39669
-167.46479
-128.72326
-178.01833
-103.33064
0
-166.51132
-103.42636
0
-132.41255
-131.71073
0
0
0
0
0
0
0
0
-89.713288
0
0
0
0
0
-170.03845
-185.15649
-163.20966
-170.2874
-171.49658
-170.78094
-181.65947
-178.59213
-198.43548
-179.66015
-192.07295
-180.20115
-185.0656
-179.83895
0
0
0
0
0
0
0
0
0
0
0
0
0
0
0
-86.529996
0
0
0
-102.00831
-104.88969
-74.599965
-69.73218
-102.08027
-83.461725
-73.321466
-72.762084
-61.537406
-86.772783
0
0
0
0
0
0
0
-118.87362
0
0
-74.559353
-87.031526
-99.701539
0
-62.800778
-78.936084
-65.129991
-53.987366
-81.869414
-58.123767
-51.918786
-47.967548
-34.254709
-34.878843
-29.230773
-42.145817
-38.793094
0
-60.537802
-61.501977
-57.669354
-42.389123
-51.700925
-71.992605
-48.415444
-41.733046
0
0
0
0
-35.424531
0
-177.28517
-185.97582
-180.06555
-181.22251
-189.31536
-190.77006
-184.54333
-173.67151
-169.98553
-179.6155
-170.74589
-160.39533
-167.77731
-155.11321
-186.86008
-168.1596
-185.61424
-173.91413
-151.68499
-173.41778
-153.14667
0
0
0
0
0
0
0
0
0
0
0
0
0
0
0
0
0
0
0
0
0
0
0
0
0
0
0
0
0
-157.34543
-127.8493
0
-132.72848
0
-110.92106
0
-110.93229
-82.424645
0
-111.70773
0
0
-162.58715
-132.32086
-137.26942
0
-105.91853
-84.961364
0
0
-110.13718
0
0
0
0
0
0
0
0
0
0
-57.870595
-57.955677
-48.098333
-42.280931
-60.130128
-51.150691
-51.19167
0
-32.771595
-36.146721
-31.356136
0
-27.889875
-24.10663
-52.755414
-40.145005
-43.79485
-38.026721
-41.443185
-46.177608
-34.366295
-33.423677
-35.356627
-33.911348
-25.54732
-39.917244
-29.818987
-29.098849
-31.998468
-29.733531
-31.381548
-22.85381
-36.820708
-28.307829
-25.727818
-37.302437
-52.000187
-38.625007
-37.132586
-43.947157
-44.792278
-32.767029
-28.119968
-19.040651
-21.80677
-20.625387
-24.716585
-25.148655
-22.243981
-88.354334
0
0
-116.35944
0
-120.40712
0
-151.26378
-186.65915
-174.86328
-175.53149
-166.17345
-164.26872
-162.03724
-130.45444
0
0
-150.15803
-135.23316
0
-143.89483
0
0
0
0
0
0
0
-165.22349
-118.77539
-127.19367
-156.37778
-188.88431
-191.40392
-147.09595
-87.233907
0
-87.052965
-118.7202
0
-120.20762
0
-81.514106
0
-86.4663
-116.30108
0
-107.82223
0
-128.58191
-78.959476
-128.87175
-96.240747
-119.50214
-86.173754
-139.44534
-166.95904
-191.46657
-206.02901
-174.83755
-197.89351
-164.36499
-176.66619
-171.93379
-202.96764
-170.89506
-215.18195
-207.6521
-162.46324
-181.01251
-132.04978
-89.042343
-100.44073
-146.76474
-134.1221
-89.605536
-143.71061
0
0
0
0
0
0
0
0
0
0
0
0
0
0
0
0
0
0
0
0
0
0
0
0
0
0
0
0
0
0
0
0
0
0
0
0
-28.634835
0
0
0
0
-23.974978
0
-23.40912
-16.875055
0
0
-21.367571
-19.688448
0
0
0
0
0
0
0
0
0
0
0
0
0
0
0
0
0
0
0
0
0
0
0
0
0
0
0
0
0
0
0
0
0
0
0
0
0
0
0
0
0
0
0
0
0
0
0
0
0
0
0
0
0
0
0
0
-167.62673
-180.22008
-177.51236
-164.43663
-160.58102
-171.62968
-152.20941
-143.08075
-157.00788
-154.17773
-139.49155
-175.04513
-163.6067
-162.62181
-174.92885
-161.43257
-170.76312
-174.03268
-158.11069
-150.38939
-130.84701
-146.7505
-135.51534
-150.91469
-166.85676
-154.52144
-162.94785
-138.67633
-128.76695
-143.97093
-122.38171
-150.88563
-165.10723
-162.80836
-155.04672
-139.19273
-127.27859
-142.94455
-123.7247
0
0
0
0
0
0
0
0
0
0
0
0
0
0
-141.51764
-114.42743
-108.42119
0
0
0
0
0
-82.63947
0
0
0
0
0
0
0
0
-61.118317
0
0
0
0
0
0
0
0
-47.197506
-37.423294
-54.953067
-48.58493
-58.275172
-44.408166
-39.225342
0
0
0
0
0
-32.031321
0
-46.246437
-55.826589
-61.388738
0
-64.130557
0
-45.430217
-46.738094
0
0
-48.512575
0
-57.216952
-39.130068
0
0
0
0
0
0
0
-93.548854
-66.892232
0
-84.001678
-77.381683
-114.72418
-121.22832
-130.37165
-106.91521
-100.21665
-106.29786
-130.7255
-101.90107
-104.72646
-118.88459
-88.190937
-80.37502
-62.964317
-64.511129
-57.189456
-68.345768
-76.201951
-65.646822
-112.98991
-131.81555
-107.30052
-132.02974
-96.756986
-73.332395
-75.149084
-80.223928
-90.787997
-81.627506
-62.076031
-76.934375
-58.997506
-80.423664
-68.021289
-70.64153
-122.1811
-124.49888
-112.35768
-70.961395
-89.162904
-137.86937
-108.41293
-167.83608
-181.27239
-176.48469
-160.12768
-186.51189
-166.42865
-170.44386
-135.13415
-123.13324
-128.31644
-149.58244
-102.58324
-143.31385
-148.16408
-107.96162
-137.12125
-164.01682
-174.53214
-166.56746
-140.7543
-138.82868
-137.2755
-174.84197
-169.7614
-152.43135
-125.07353
-141.7863
-145.31132
-153.4231
-135.4416
-149.40374
-142.41149
-148.65027
-127.17692
-159.25245
-148.46227
-143.10506
-158.8018
-134.46951
-143.43964
-123.03406
-147.80991
-154.19334
-132.83317
-154.40338
-135.14012
-161.35805
-167.6743
-159.9071
-161.06448
-147.28534
-140.03538
-140.61373
-142.42317
-154.40204
-145.02005
-151.02241
-160.44547
-150.35239
-161.64064
-146.99389
-101.77951
-112.48976
-118.53857
-104.42781
-81.426939
-97.024001
-89.724421
-137.72961
-139.45556
-125.79518
-130.49675
-129.84447
-133.8125
-118.35062
-112.18063
-102.43355
-74.643562
-93.872982
-86.747952
-111.77179
-113.55748
-121.60446
-98.867882
-90.011455
-69.124343
-65.015622
-65.510744
-81.197522
-75.784022
-77.588062
-46.04601
-66.203448
-60.412968
-51.55691
-47.425802
-58.760714
-50.017769
-33.257682
-22.856418
-30.868073
-24.970572
-34.049605
-29.854344
-24.125689
-40.927195
-35.617781
-51.507038
-43.669053
-41.491901
-50.230335
-35.623289
-31.956765
0
0
0
-31.831655
0
0
-44.7749
-64.283364
-58.352562
-46.322232
-44.517043
-57.185781
-48.640677
-42.140959
-53.313387
-38.247853
-45.199853
-43.429242
-51.735258
-36.902982
-32.233593
0
0
0
-32.49516
0
0
-81.673998
-70.9953
-84.180485
-68.685939
-90.72943
-112.30098
-103.81321
-98.75622
-68.305254
-60.088012
-60.554397
-50.540582
-71.722177
-58.345883
-58.121181
-93.377684
-109.95948
-106.35334
-96.093227
-79.236063
-69.947911
-84.400449
-66.808782
-144.93905
-177.49682
-167.04657
-174.00102
-174.83557
-178.99972
-163.46734
-154.33043
-157.53564
-160.70726
-161.9911
-152.91833
-150.23086
-160.23049
-181.12717
-159.69147
-169.80223
-165.64251
-150.47682
-170.74293
-149.25574
-180.58812
-146.16835
-167.2726
-174.33573
-178.27769
-167.82495
-171.71012
-161.69144
-146.03857
-136.54465
-161.25789
-141.51903
-158.10844
-164.01187
-178.24335
-183.42084
-175.14678
-176.83563
-178.34052
-176.46799
-175.4765
-130.37741
-148.7164
-129.09208
-115.58566
-138.27738
-135.08975
-117.79337
-92.364836
-111.22967
-108.45737
-94.959262
-81.653543
-96.989477
-80.448645
-145.39306
-127.82327
-126.58225
-112.01978
-128.9201
-130.44524
-112.59881
-83.447908
-70.111154
-77.183087
-61.019296
-75.064808
-85.233274
-69.170965
-101.82421
-125.8482
-114.51023
-97.824593
-121.22125
-94.230294
-104.96399
-68.106975
-58.51123
-74.185632
-58.385084
-71.542234
-71.604018
-55.817913
-83.393231
-84.061726
-102.1497
-108.28386
-103.12543
-81.717605
-87.185628
-86.333161
-110.0064
-94.109937
-111.14339
-90.231056
-105.59743
-90.4987
-173.05202
-155.11594
-166.49364
-176.61292
-175.76211
-165.4875
-178.40948
-149.45019
-153.81099
-124.95577
-131.14038
-125.31466
-149.16694
-154.09996
-169.74728
-178.49109
-167.80908
-182.04867
-167.32765
-169.63883
-178.194
-150.47523
-131.90128
-158.27303
-132.87987
-154.36667
-127.16182
-155.06371
0
0
0
0
0
0
0
0
0
0
0
0
0
0
0
-37.793618
0
0
0
0
-46.321401
-56.675539
-80.236513
-95.801593
-78.902215
-68.014114
-73.119281
-67.473785
0
0
0
0
0
0
0
0
0
0
-68.063841
0
0
-54.372722
0
0
0
0
0
0
0
0
0
0
0
0
0
0
0
0
0
0
0
0
0
0
0
0
0
0
0
0
0
0
0
0
0
0
0
0
0
0
0
0
0
0
0
0
0
0
0
0
0
0
0
0
0
0
0
0
0
-124.60079
-106.50701
-86.447919
-75.628528
-108.93244
-88.523826
0
0
0
0
0
0
0
0
0
0
0
0
0
0
0
0
-76.493225
0
0
0
-78.953668
0
0
0
0
0
0
0
-32.016756
-26.303319
-41.949844
-28.551744
-36.292109
-34.935245
-24.97059
-36.123334
-43.887985
-47.838508
-37.252573
-38.802662
-44.246801
-35.515119
-34.398885
-35.389845
-28.262583
-45.305044
-29.389048
-35.827358
-42.781461
-27.900293
-26.57203
-20.1977
-22.496157
-25.515419
-22.140286
-28.199216
-27.987814
0
0
-18.816495
-24.100813
-28.305458
-21.611894
-39.163718
-51.475653
-55.808686
-55.295671
-44.198472
-43.446998
-49.291435
-30.21812
-26.414555
-31.181493
-23.917851
-32.625399
-24.239942
-29.686906
0
0
0
0
0
0
0
0
0
0
0
0
0
0
0
-49.039715
-56.413881
0
0
-65.414993
0
0
0
0
0
0
0
0
-110.90569
-118.55565
-95.689529
0
0
0
-56.979532
0
-86.583472
0
0
-75.46774
0
-69.809325
-101.81051
0
-81.861619
0
-89.312075
0
0
0
0
0
0
0
-21.846064
-30.853961
-25.075951
0
0
-28.679612
-19.029667
-19.122229
0
0
0
0
0
0
-25.821906
-31.545086
-39.61228
-32.224326
-32.1869
-32.286982
-26.256145
-16.426738
-12.428563
-14.897479
0
-13.965157
-17.611607
0
-25.428579
-35.967062
0
-40.239123
0
-32.041583
-33.138949
-22.220227
-24.218125
-27.82297
-19.458585
-28.002163
-19.23839
-22.649369
-15.116953
0
0
0
0
0
0
-47.481205
-43.852112
-49.137799
-32.976487
-41.333112
-56.758436
-37.991697
-67.321054
-93.820854
-94.530136
-100.72091
-77.198206
-81.927706
-82.101817
-47.160073
-51.385154
-46.75405
-38.918898
-53.196349
-39.907081
-45.269307
-54.181966
-50.628088
-74.418281
-50.330615
-61.447396
-65.181342
-43.512254
-58.231455
-59.969583
-62.319906
-86.853238
-49.914159
-70.412394
-71.224949
-41.493003
-30.326269
-34.161433
-33.855515
-36.194243
-34.934169
-39.538006
0
0
-47.208995
0
0
0
0
0
0
0
0
0
0
0
0
0
0
0
0
0
0
0
0
0
0
0
-58.383553
-60.654588
0
-47.411997
0
0
0
0
0
0
0
0
0
-14.448169
0
-21.949219
0
-19.420249
0
-16.526643
-13.200535
-12.518936
-16.180137
-17.809733
0
-17.583442
-13.50916
0
0
0
0
0
0
0
-9.8745322
0
-12.438127
0
-11.78144
-10.237368
0
0
0
0
0
0
-17.229831
0
-14.496025
-20.991944
-18.850435
-16.527168
-19.082985
-16.538915
-14.498581
0
0
0
0
0
0
0
0
0
0
0
0
0
0
0
0
0
0
0
0
0
0
0
0
0
0
0
0
0
0
0
0
0
0
0
0
-20.842343
0
0
0
0
0
-43.584213
0
0
0
-29.378934
0
-38.558066
0
0
0
0
0
0
0
0
0
0
0
0
0
0
0
0
0
0
0
0
0
-38.006146
-54.452636
-45.702623
-36.847396
-33.691575
-50.797581
-42.143342
0
0
0
0
0
0
0
-28.417925
-26.048054
-17.01735
-29.319449
0
-24.746321
-33.802065
0
0
0
0
0
0
0
-34.775938
-46.930524
-46.065601
-36.551184
-34.262328
-46.612348
-36.222758
0
0
0
0
0
0
-52.450813
-24.821226
-25.556111
0
-20.379073
-22.685025
-17.059426
-27.30517
0
0
0
0
0
0
0
-32.978292
0
-48.584948
0
-31.792972
0
-50.575254
-24.750465
-16.738545
-28.524764
-21.10521
-24.640086
-16.932528
-27.922211
0
0
0
0
0
0
0
0
0
0
0
0
0
0
0
0
0
0
0
0
0
0
0
0
0
0
0
0
0
0
0
-16.634598
0
0
0
0
0
0
0
0
0
0
0
0
0
-17.342522
0
0
0
-91.80829
-117.35008
-115.07305
-115.89941
-100.47272
-104.55427
-106.55576
-62.712578
-52.995329
-66.426211
-57.077859
-62.59453
-53.329876
-68.117524
-66.256569
-46.023139
-52.618585
-59.587352
-55.980679
-54.654586
-71.506851
-78.407561
-80.712312
-100.98572
-97.700334
-79.912774
-76.348187
-98.586378
-79.313841
-101.61556
-81.23272
-96.505398
-77.824125
-84.914462
-98.474401
-79.661754
-89.953357
-58.882585
-81.078309
-67.190751
-81.46736
-93.901857
-75.795595
-98.270988
-68.861763
-71.13964
-62.030774
-83.275407
-88.17988
-148.17847
-156.60069
-137.37076
-140.25713
-146.64986
-144.85726
-141.11719
-150.11553
-134.57504
-135.1436
-109.12583
-135.27062
-151.40796
-137.37796
-163.08347
-193.44877
-169.40708
-163.71824
-175.39536
-157.31496
-166.76464
-155.11205
-163.44959
-150.9878
-153.43051
-152.77305
-157.86505
-152.25257
-146.89154
-127.88103
-111.7434
-136.69402
-132.98577
-141.50156
-138.15985
0
-120.027
-119.34712
0
0
0
-96.131698
0
0
0
0
0
0
0
0
0
0
0
0
0
0
0
0
0
0
0
0
0
0
0
0
0
0
0
-95.172509
0
0
0
0
0
0
0
0
0
-114.78613
-173.43015
-145.08178
-111.45274
-121.42637
-159.57849
-104.99667
-166.47295
-140.20486
-154.41119
0
0
-186.43043
-174.94091
-170.75079
-106.35771
-125.69075
-120.39664
-87.179974
-98.847819
-138.86093
-96.803159
0
0
-118.33266
-158.41554
-126.97117
-127.26381
-109.24123
-136.93638
-139.08571
-111.83691
-110.11349
-144.85166
-118.78981
-123.95153
-96.657797
-133.03971
-128.34754
-169.86509
-149.42733
-156.4186
-138.27637
-145.62542
-149.63499
-99.538368
-108.5927
-75.66398
-102.42335
-83.844817
-91.259559
-119.34601
0
-121.98665
-131.18169
0
-117.53261
0
-95.532201
0
0
0
-64.057668
0
0
-76.55245
0
0
0
0
0
0
0
0
0
0
-86.016243
0
0
0
-83.805178
0
0
-112.97499
-79.578015
0
0
-99.868618
-87.377443
0
0
0
0
-123.15847
-129.79299
-122.32957
-131.09777
-119.30915
-133.35124
-111.82238
-135.3279
-153.55192
-124.58199
-119.03212
-148.88308
-134.5793
-119.0994
-150.67273
-179.10923
-167.96218
-156.23187
-169.51787
-153.11785
-152.15201
-115.31881
-98.104307
0
0
-102.04873
-83.563235
-114.17335
-136.50564
-119.66444
-119.22129
-141.91158
-145.00015
-118.56641
-138.05235
-112.12834
-96.158792
-93.616402
-67.196646
-100.3185
-107.19054
-90.502975
-125.20453
-117.13251
-127.73545
-88.877553
-134.03421
-101.48069
-120.2009
-119.13321
0
0
-88.762822
-136.36203
-125.6639
-100.75248
0
0
0
0
0
0
0
0
0
0
0
0
0
0
0
0
0
0
0
0
0
-86.136249
-108.91826
-125.52126
0
-125.8136
-86.072707
0
-95.447381
-132.32876
-99.02573
-128.96488
-130.71643
-101.13231
-93.867412
0
0
0
0
0
0
0
0
0
0
0
0
0
0
0
0
0
0
0
0
0
-131.18391
0
-106.19767
-102.46898
-136.40247
-119.3583
-105.05834
0
0
0
0
0
0
0
0
0
0
0
0
0
0
-89.265803
0
-87.427939
0
0
0
-91.27697
-85.495824
-69.911168
-79.389802
-62.60355
-86.673596
-68.571449
-80.511293
-98.517697
-126.71647
-101.76906
-100.65799
-107.41699
-103.93325
-95.366588
-80.056706
0
0
-65.109487
0
0
-81.20865
-88.201506
-85.923605
0
0
-89.708161
0
-84.471915
-77.415413
-60.467028
-77.097693
-62.034871
-74.997882
-61.679177
-78.832323
-77.101448
-55.068639
0
0
-62.781762
-67.739697
0
-85.963438
-85.39159
-111.81682
-86.164855
-90.225592
-76.945899
-92.74328
-90.536603
-99.301785
-97.248822
-114.71919
-93.950166
-92.912364
-96.902742
-82.064953
0
0
0
-66.346925
0
-78.673197
-80.068371
0
-66.013376
0
-67.232839
-80.440272
0
0
0
0
0
0
0
0
0
0
0
0
0
0
0
0
0
0
0
0
0
0
0
0
0
0
0
0
0
0
0
0
0
0
0
0
0
0
0
0
0
0
0
0
-73.079308
0
0
0
-71.752315
0
-85.206778
-116.58981
-124.99284
-75.718961
-124.22787
-85.763047
-77.058242
-89.168027
-124.42827
-120.87111
-89.838723
-124.30231
-88.82626
-92.316296
0
0
0
0
0
0
0
-89.98679
-96.613059
-126.98309
-122.14216
-124.77146
-92.047121
-94.259344
0
0
0
0
0
-68.568917
0
0
0
0
0
0
0
0
-86.56564
-67.28695
-78.288876
-68.47666
-66.590683
-59.293599
-76.203774
-91.154561
-73.529723
-81.213385
-70.470157
-73.036074
-78.635375
-63.074155
-61.433939
-63.037242
-70.384093
-60.945783
-48.429627
-53.674429
-54.261609
0
-29.491765
0
-21.244331
0
-24.528298
0
0
-34.445527
0
-24.169361
-27.177706
0
-30.273339
-36.63773
-39.094149
-32.599706
-27.453237
-37.064901
-30.812182
-33.719511
-23.524078
-31.086686
-23.970103
-22.116618
-26.328334
-28.713189
-19.813426
-15.742343
0
0
0
0
-13.879376
0
-21.215224
-24.457268
-23.012393
-16.942012
-18.814295
-26.55569
-18.453677
-18.315688
-15.947656
-18.58358
-12.0295
-21.425178
-15.612455
0
-80.326896
-70.544663
-68.034753
-58.910395
-71.225224
-69.726897
-60.869165
-50.438639
-44.358366
-54.492958