/*--------------------------------*- C++ -*----------------------------------*\
  =========                 |
  \\      /  F ield         | OpenFOAM: The Open Source CFD Toolbox
   \\    /   O peration     | Website:  https://openfoam.org
    \\  /    A nd           | Version:  8
     \\/     M anipulation  |
\*---------------------------------------------------------------------------*/
/*   Windows 32 and 64 bit porting by blueCAPE: http://www.bluecape.com.pt   *\
|  Based on Windows porting (2.0.x v4) by Symscape: http://www.symscape.com   |
\*---------------------------------------------------------------------------*/
FoamFile
{
    version     2.0;
    format      ascii;
    class       polyBoundaryMesh;
    location    "constant/air/polyMesh";
    object      boundary;
}
// * * * * * * * * * * * * * * * * * * * * * * * * * * * * * * * * * * * * * //

13
(
    left
    {
        type            patch;
        nFaces          0;
        startFace       6522;
    }
    right
    {
        type            patch;
        nFaces          0;
        startFace       6522;
    }
    back
    {
        type            patch;
        nFaces          0;
        startFace       6522;
    }
    front
    {
        type            patch;
        nFaces          0;
        startFace       6522;
    }
    bottom
    {
        type            wall;
        inGroups        List<word> 1(wall);
        nFaces          219;
        startFace       6522;
    }
    top
    {
        type            patch;
        nFaces          0;
        startFace       6741;
    }
    tower
    {
        type            mappedWall;
        inGroups        List<word> 
2
(
wall
mappedPatch
)
;
        nFaces          279;
        startFace       6741;
        sampleMode      nearestPatchFace;
        sampleRegion    tower;
        samplePatch     buildings_to_air;
    }
    procBoundary6to0
    {
        type            processor;
        inGroups        List<word> 1(processor);
        nFaces          27;
        startFace       7020;
        matchTolerance  0.0001;
        myProcNo        6;
        neighbProcNo    0;
    }
    procBoundary6to5
    {
        type            processor;
        inGroups        List<word> 1(processor);
        nFaces          245;
        startFace       7047;
        matchTolerance  0.0001;
        myProcNo        6;
        neighbProcNo    5;
    }
    procBoundary6to8
    {
        type            processor;
        inGroups        List<word> 1(processor);
        nFaces          66;
        startFace       7292;
        matchTolerance  0.0001;
        myProcNo        6;
        neighbProcNo    8;
    }
    procBoundary6to9
    {
        type            processor;
        inGroups        List<word> 1(processor);
        nFaces          82;
        startFace       7358;
        matchTolerance  0.0001;
        myProcNo        6;
        neighbProcNo    9;
    }
    procBoundary6to15
    {
        type            processor;
        inGroups        List<word> 1(processor);
        nFaces          37;
        startFace       7440;
        matchTolerance  0.0001;
        myProcNo        6;
        neighbProcNo    15;
    }
    procBoundary6to19
    {
        type            processor;
        inGroups        List<word> 1(processor);
        nFaces          140;
        startFace       7477;
        matchTolerance  0.0001;
        myProcNo        6;
        neighbProcNo    19;
    }
)

// ************************************************************************* //
