/*--------------------------------*- C++ -*----------------------------------*\
  =========                 |
  \\      /  F ield         | OpenFOAM: The Open Source CFD Toolbox
   \\    /   O peration     | Website:  https://openfoam.org
    \\  /    A nd           | Version:  8
     \\/     M anipulation  |
\*---------------------------------------------------------------------------*/
/*   Windows 32 and 64 bit porting by blueCAPE: http://www.bluecape.com.pt   *\
|  Based on Windows porting (2.0.x v4) by Symscape: http://www.symscape.com   |
\*---------------------------------------------------------------------------*/
FoamFile
{
    version     2.0;
    format      ascii;
    class       scalarListList;
    location    "constant/air";
    object      divqrsw;
}
// * * * * * * * * * * * * * * * * * * * * * * * * * * * * * * * * * * * * * //


5
(

2246
(
0
0
0
0
0
0
0
0
0
0
0
-23.547543
0
0
0
0
0
0
0
0
-26.462511
-135.21267
-141.61698
-115.61631
0
-31.544087
0
-109.08923
-28.140441
0
0
0
0
0
0
0
-22.498494
0
0
0
0
0
0
0
0
0
0
0
0
0
0
-139.06576
0
0
0
-176.12488
0
0
-122.91396
0
0
0
0
0
0
0
0
0
0
0
0
0
0
0
0
0
0
0
0
0
0
0
0
0
0
0
0
-12.189797
0
0
0
0
0
0
0
0
0
-87.739476
-28.988422
0
0
0
0
0
0
-25.531961
0
0
0
0
-97.358125
0
-35.592384
0
0
0
0
0
0
0
0
0
0
0
0
-126.76799
0
0
-138.81267
0
0
0
0
0
0
0
0
0
0
0
0
0
0
0
-69.573719
0
0
0
0
-14.222436
-84.679023
0
0
0
-103.5255
-176.16291
0
0
0
0
-154.02062
-115.15868
0
0
-64.671144
-130.1705
-144.71063
0
-73.968154
0
0
-149.42091
0
0
0
0
0
-104.53913
0
0
-54.12238
-114.57855
-142.44979
0
0
0
0
0
0
0
0
0
-96.173956
-100.47182
0
-61.568353
-112.93174
0
-38.791326
0
0
0
0
0
0
0
-15.946633
0
-50.788635
-100.51304
0
-30.095204
0
0
0
0
0
0
0
-17.056271
-25.056635
-21.528088
-19.205461
-16.984484
-20.183534
-22.44585
0
0
0
0
0
0
0
0
0
0
0
0
0
0
0
0
0
0
-155.39169
0
-198.14938
-204.23673
0
0
-154.45393
0
0
0
0
0
0
0
0
0
0
0
-129.8745
0
-133.53564
-138.61391
0
-128.61886
0
0
0
-31.277525
-27.810574
-22.163107
-31.166476
-22.754622
-30.589107
-32.718495
-144.19371
-129.31176
-135.24863
-163.21625
-155.36961
-155.03331
-125.82468
-165.0835
-149.02124
-143.5362
-168.5069
-175.09167
-160.66718
-151.56289
-115.69066
-123.52591
-124.12686
-95.781818
-101.97963
-134.03851
-107.96021
-44.979953
-33.35189
-36.473592
-37.72293
-43.016084
-37.836365
-40.256915
-94.950206
-106.68579
-115.92471
-91.252035
-88.638405
-109.40024
-101.32811
-35.491306
-30.393616
-26.460716
-34.774852
-28.524619
-32.469503
-37.594599
0
0
0
0
0
0
0
0
-9.8990422
0
0
0
-13.409368
0
-11.732682
-12.75456
0
0
-28.559023
-14.645886
-17.006994
0
-42.25748
0
0
0
-24.494396
0
0
0
0
0
0
0
0
0
0
0
0
0
0
0
0
0
0
0
0
0
0
0
0
-113.15814
-163.22252
0
0
-132.62743
0
-197.48256
0
-146.38289
0
-159.81885
0
0
0
-119.97352
-103.43725
0
0
0
0
0
0
0
0
0
0
0
-25.091272
0
0
0
-16.344017
-21.073872
0
-17.411706
0
0
-13.553598
0
-17.932518
-12.520452
-15.547612
-9.7790291
0
-13.200256
0
-15.576012
0
0
0
0
0
0
0
0
0
0
0
0
0
0
0
0
0
0
0
0
-85.557105
-60.082731
-36.504533
-44.449896
-98.883633
-67.430214
-83.408548
-15.382933
-41.347816
-28.859608
-34.147677
-33.457033
-17.891308
-47.196988
-34.764776
-48.672718
0
0
-26.474026
-72.913773
0
0
0
0
0
0
0
0
0
0
0
0
0
0
0
-45.639563
-123.22001
-134.13737
0
-81.618652
0
-92.258452
0
-11.610335
0
0
0
-14.549701
0
0
-73.320574
0
0
0
0
-77.589166
-14.908982
-82.120256
-50.340079
-62.289625
-28.791018
-18.539882
-91.775649
0
-47.101895
0
0
-27.207431
-105.00659
0
0
0
0
0
0
-73.66293
0
0
0
0
0
-19.549448
0
0
-153.06993
-68.098998
-112.55499
-116.21089
-106.84049
-75.986465
-161.16773
0
-74.660274
-164.76474
-170.87289
0
0
-85.706608
-97.404512
-49.303196
-138.54559
-144.51089
-40.212712
-55.559977
-108.63321
-147.55429
-53.638793
0
-119.22999
0
-79.789948
-127.41171
-187.59607
0
0
0
0
0
-145.73561
-155.97471
0
0
0
0
0
-82.493259
-151.84776
-135.79269
-119.22802
0
0
-90.195312
-173.55977
0
0
0
0
0
0
0
0
0
0
0
-95.789774
-198.19317
0
0
-145.27159
-88.827683
-223.02482
0
-211.52071
0
0
-212.03303
0
0
0
0
0
0
0
0
0
-146.69001
0
0
-96.096852
-234.84349
0
-171.15288
-202.50395
-189.75473
-189.68461
-149.8799
-179.17998
-214.806
0
0
-180.8197
-204.59353
-140.15633
0
0
-196.15515
0
0
0
0
-128.62531
0
0
-170.02511
-158.08753
0
0
-194.21367
0
-222.01277
0
0
0
0
0
0
0
0
0
0
0
0
0
0
0
0
0
0
0
0
0
0
0
0
0
-22.488908
-25.575193
0
0
-17.870877
0
-24.908995
-26.95479
-17.945662
0
-24.284712
-17.697899
-27.819979
0
-58.226432
-63.112753
-71.558765
-87.379838
-56.371556
0
-66.853159
0
0
0
0
0
0
0
-47.585074
0
-40.042504
-58.371034
-48.726325
0
0
0
0
0
0
0
0
-45.803838
-114.85837
-125.80452
-96.587455
0
0
-138.31941
-113.69487
-167.26444
-164.24798
-193.74612
-164.47337
-170.98762
-184.19818
-160.35397
-122.65228
-140.14473
-145.24396
-145.0651
-136.06657
-116.02498
-143.09118
-126.36908
-141.72487
-134.64489
-127.36079
-150.43323
-133.56705
-131.00302
0
0
-134.50805
-128.4258
-119.09632
-144.48789
-117.61269
0
-123.38774
-117.09958
-109.30756
-113.48093
-118.49851
-111.10836
-99.006988
-79.223314
-74.570974
-71.747912
-86.847634
-81.412687
-91.30251
-130.04673
-137.00822
-129.60073
-111.52864
-135.54702
-115.93032
-125.0704
-106.35429
-146.80099
-136.76752
-82.76342
-135.65087
-98.563805
-89.512503
0
0
0
-95.45855
0
0
-91.152909
0
0
-121.46825
-129.84126
0
0
-109.16316
-50.758958
-36.009528
0
-65.160843
-34.440482
-54.08116
-53.505236
-79.850658
-69.783819
-112.4198
-126.50029
-73.563614
-75.226258
-138.47982
0
-65.716012
0
0
-55.751939
0
-91.383011
0
-77.643525
-93.470393
-105.45432
0
-93.757695
-96.943069
-53.883701
-44.040649
-59.998127
-61.203467
-51.249696
-67.1388
-47.146201
-69.945876
-92.76222
-105.5746
-93.037123
-79.832587
-92.570273
-73.25176
-81.318703
-136.08624
-141.08534
-78.018204
-77.105355
-83.138612
-140.46579
0
0
0
0
0
0
0
-86.669308
-104.1205
-90.916286
-74.419239
-75.959716
-83.950308
-100.87258
0
-97.726024
-119.15284
-113.57267
-102.30822
-117.01826
0
0
-77.546105
0
0
0
-81.623168
0
-80.054894
-74.095473
-70.34596
-59.488353
-71.82704
-85.023317
-66.527155
-90.27915
-123.03933
-98.376758
0
-113.38345
-88.003265
-79.03933
-66.180596
0
0
0
0
0
-54.965059
-72.404993
-54.99922
-56.449185
-38.590004
-56.209266
-68.147393
-60.753082
-42.515383
-35.01299
0
0
-30.924851
-49.231685
0
-30.617841
-22.260089
0
-19.075836
-24.046531
-27.855978
0
-27.44728
0
0
0
0
0
0
-43.329214
-41.58919
-56.25276
-47.815254
-39.442007
-45.258696
-53.051767
-55.152436
-81.627469
-82.491231
0
-65.642731
0
-67.631715
-36.575468
0
0
0
0
0
-45.68084
-39.897519
-23.93643
-45.145691
-30.888248
-36.090429
0
-49.446761
0
0
0
0
0
0
0
0
0
-21.061519
-18.630609
-17.154636
-17.862068
-22.68276
-21.917361
-18.737185
0
-29.053677
0
0
0
0
0
0
0
0
0
0
0
0
0
0
0
0
0
0
0
0
0
0
0
0
-63.986591
-49.114414
0
0
-41.894454
-70.235939
0
-105.70766
-125.17884
0
0
-130.4071
0
-106.75424
0
0
0
0
0
0
0
0
-36.699367
0
0
0
-28.069669
-39.718515
0
0
0
0
0
0
0
-64.545593
-52.278594
0
0
0
-70.265274
-49.883983
-140.41554
-134.12658
-94.845123
0
0
-139.21971
-137.24904
0
0
-106.28886
-123.29802
0
0
0
-109.0691
-122.18486
0
0
0
0
-122.4039
-131.6451
0
0
-131.94119
0
-124.87754
0
0
0
0
0
0
0
0
0
0
0
0
0
0
0
-33.287559
0
0
0
-30.600736
0
0
0
0
0
0
0
0
0
0
0
0
0
0
-181.88444
-136.54638
-145.06523
-163.36445
-114.29408
-188.15016
-219.39764
-171.44845
-163.27279
-169.75878
-206.87889
-223.67891
-184.41359
-167.30303
-212.5642
-160.78278
-207.90883
-222.70166
-188.34161
-145.10748
-144.80873
-162.49722
-178.00192
0
-111.69649
-187.77837
-129.32464
0
0
0
0
0
0
0
0
0
0
0
0
0
0
0
0
0
0
0
0
0
0
0
0
0
0
0
0
0
-121.83171
0
0
-131.93665
-67.512318
-121.40817
-129.56407
0
0
0
-139.73341
-130.26654
0
0
-142.15044
-130.97658
0
-131.02076
0
0
0
-130.2853
-122.86837
0
-62.956875
-120.5276
0
0
0
0
0
0
0
0
0
0
-10.360458
-8.3961748
0
0
0
0
0
0
0
0
0
0
0
0
0
0
0
0
-11.693165
0
0
-9.5600952
0
0
-17.32986
0
-14.067343
-14.975552
-12.934842
0
-18.477959
-15.480743
-10.574608
-13.720465
-14.262328
-13.03199
-11.050757
-15.542761
0
0
-11.055311
-11.834304
0
0
-8.4369832
-12.794125
0
0
0
0
-9.1381413
-13.973653
-19.501895
-24.548575
-25.977502
-24.494539
-21.911831
-23.504976
-20.757729
-16.082274
-13.900633
0
-21.155912
0
-17.479237
-19.766959
-15.744798
-14.645602
-14.184975
-20.384827
-12.412785
-17.873996
-17.34329
0
0
0
0
0
0
0
-42.027959
-61.495637
-37.441162
-36.849915
-31.290264
-54.166564
-51.570588
0
0
0
0
0
0
0
0
0
-30.965497
0
-24.314998
0
-45.283838
-30.580017
-18.669443
-31.052453
0
-24.914576
0
-40.690879
0
0
0
0
0
0
0
0
0
0
0
0
0
0
0
0
0
0
0
0
0
0
0
0
0
0
0
0
0
0
0
0
0
0
0
0
0
0
0
0
0
0
0
0
0
0
0
0
0
-94.32317
-62.518242
-74.189462
-74.74484
-80.017832
-60.908201
-92.484756
-48.19275
-49.759378
-59.664376
-61.737798
-43.3037
-50.701568
-53.179674
-65.796414
-49.24096
-58.987866
-54.873959
-54.077612
-57.492902
-68.44935
-78.60335
-76.109154
-69.12561
-100.15635
-61.707449
-83.587638
-94.034474
-21.115436
-18.534208
-25.779055
-27.880576
-17.229094
-22.490373
-21.915471
-23.549607
-39.818887
-32.588178
-35.260981
-36.112907
-28.958081
-43.244517
-37.832284
-41.435363
-27.700949
-48.604524
-32.337186
-46.790431
-39.424855
-29.873344
-18.414537
-21.372144
-25.258753
-23.889993
-23.790815
-31.54075
-78.936799
-31.988854
-60.543351
-49.487386
-52.196363
-47.113522
-88.790777
-74.650393
-70.712922
-43.603077
-55.912576
-64.642764
-50.391248
-80.117574
0
0
0
0
0
0
0
-82.054145
0
-118.00839
0
-96.571617
-93.969905
0
-67.873379
-28.594184
-37.151926
0
-56.755274
-44.513996
0
-84.588803
-65.955199
-63.418319
-104.98553
-56.92614
-96.378056
-91.539424
-60.538523
0
0
0
0
-69.509166
0
0
0
0
0
0
0
0
0
0
0
0
0
0
0
0
0
0
0
0
0
0
-97.483672
-67.867705
-57.444498
-59.078424
-76.238336
-93.288902
-68.106749
-118.41062
-136.12182
-105.31288
-113.60222
-98.502627
-130.63567
-124.617
-106.62484
-112.84902
-135.02776
0
-107.81545
-133.37278
0
-82.66686
0
0
0
0
0
-88.04399
-113.13014
-75.091027
-92.755703
-117.26793
-85.592196
-106.66842
-124.29091
-79.855083
0
0
0
-75.11691
0
0
-101.8291
-77.017291
-107.80999
-84.852564
-90.2266
-78.14718
-109.6615
0
-21.308712
0
0
-12.053434
0
-21.974737
0
-31.833336
0
0
0
0
-32.328801
0
0
-38.611841
0
0
-35.008078
0
0
0
0
0
0
0
0
0
-13.145095
-25.2896
0
0
-23.247313
0
0
-76.617641
0
0
-80.267556
-73.086784
0
0
0
0
0
0
0
0
0
0
0
0
0
0
0
0
-84.231049
-86.537939
0
-78.218191
0
0
-18.041637
-25.377706
-28.234077
-28.484565
-15.204317
-18.218531
-25.806158
-60.113921
-72.098794
-54.857961
-54.700957
-83.208345
-69.873941
-60.108587
-42.019238
-61.283004
-49.202043
-49.584277
-46.867605
-42.819676
-58.536962
-52.111458
-52.097376
-49.077519
-74.984704
-45.545294
-63.42923
-56.000446
-29.953818
-16.565554
-29.584442
-22.550328
-19.87672
-27.12437
-32.501905
-56.851798
-86.181787
-83.562811
-67.199461
-73.974691
-60.943056
-62.319217
-75.180008
-51.783677
-73.237966
0
-65.506441
0
0
-71.707511
-69.494096
-41.27551
-52.403428
-59.785394
-49.468304
-78.05006
0
0
0
0
0
0
-54.797789
0
0
0
0
0
0
0
-56.230018
-35.751084
-34.493309
0
-46.144738
-44.178105
0
-96.388898
-89.438924
-83.949167
-125.44826
-75.569901
-96.858997
-108.64879
0
0
0
0
0
0
0
0
0
0
0
0
0
0
0
0
0
0
0
0
0
-133.04903
-147.79252
-111.12849
-109.94282
-152.70525
-148.43933
-130.18153
-110.85602
-152.97194
-152.11661
-144.38508
-148.10225
-123.67499
-130.36121
0
-102.63678
0
0
-89.996426
0
-118.67463
0
-132.54288
0
-144.15006
-174.40534
-161.01782
-146.24536
-158.35647
-181.48797
-135.09781
-140.25823
-170.80508
-156.1609
0
0
-98.803325
-111.76382
0
0
-127.87734
0
-65.088135
-116.52836
-68.016546
-68.204166
-98.966519
-64.822734
-117.10249
-128.87905
-74.110021
-72.76764
-72.509899
-138.87856
-73.241346
-128.86514
-73.57304
-139.62215
-79.985751
-135.95993
-73.526355
-129.63323
-79.138867
-70.024002
-102.09984
-126.24178
-71.697868
-66.60905
-118.76511
-75.676162
-114.96751
-145.34009
-91.852373
-144.5059
-91.65501
-155.09824
-114.35556
-92.420087
-77.214954
-60.536638
-58.235831
-85.208033
-84.864404
-64.786047
-69.886387
0
0
0
0
-64.269585
-93.106901
-84.455109
0
0
-122.01356
0
-97.275333
-106.62218
-75.871199
-95.411055
0
0
0
-99.048178
-81.94503
-102.44794
-83.428307
-70.017609
-112.05262
-98.483921
-74.02709
-113.97993
-115.99697
-139.08336
-88.713147
-154.71079
-116.3932
-90.757962
-156.58677
0
0
-139.70943
-186.4075
0
0
-131.23554
0
0
0
0
0
0
0
0
0
0
0
0
0
0
0
-164.46374
0
-104.32631
0
-115.01219
0
0
0
-126.86846
-126.5448
0
-113.79902
0
0
0
0
0
0
0
0
0
-101.45264
0
0
0
0
-97.897948
-133.53489
-140.19942
-101.81841
-153.82199
-116.66233
-121.94589
-137.57046
-148.01986
-145.99252
-115.28312
-151.73462
-140.70875
-128.74723
-155.58723
-136.22681
-110.43184
-84.904399
-132.96629
-96.216687
-137.80729
-121.11273
-122.21978
0
0
-114.62176
0
-103.44436
-129.26032
-112.79347
-95.139192
0
0
0
-96.783872
-97.071405
-137.8934
-96.540282
-102.556
-123.34471
-132.53269
-110.66737
-125.36638
-145.12524
-157.07099
-164.4493
-152.48474
-139.32768
-140.08381
-157.61303
-117.31337
-98.624494
-142.00401
-146.2834
-88.954276
-99.242554
-115.04153
-174.21716
-174.85049
-166.51571
-167.00956
-193.35476
-183.14805
-169.7256
-94.929814
-158.18225
-163.05855
-179.68844
-95.557878
-104.54165
-186.33304
-182.99813
-99.757426
-98.587079
-185.07875
-106.5326
-195.54819
-173.01919
-148.64314
-82.280772
-94.973253
-121.53962
-97.993892
-116.37638
-147.41367
-178.3337
-208.82221
-203.824
-193.06693
-198.60212
-182.64588
-182.14709
-137.57864
0
0
-179.95439
0
-187.15342
-131.47393
-164.21404
-207.97123
-206.00629
-177.64675
-207.83885
-160.91052
-183.9912
0
0
-134.41161
0
0
0
0
0
0
0
0
0
0
0
0
-180.39484
-172.48882
-166.91066
-135.89951
-127.26308
-134.04872
-103.39323
0
-147.9654
0
-150.93685
0
0
-139.68635
-144.05265
-137.56033
-171.69335
-133.48145
-159.15169
-155.05938
-96.496524
0
-118.52266
0
0
0
-120.84971
0
0
0
0
0
0
0
-108.67626
-89.828403
-125.88652
0
-110.55737
-141.03287
0
-144.83362
-194.07649
-202.59789
-191.58666
-180.11852
-146.6657
-170.5806
-154.64837
-191.04797
-178.46024
-175.62003
-168.75867
-189.96384
-149.9615
-209.66931
-206.75536
-203.56376
-204.24216
-196.12325
-206.66216
-211.05093
-203.7354
-195.76732
-201.57879
-203.34834
-202.7176
-209.29865
-208.80423
-175.7759
-169.48616
-197.82349
-164.44582
-189.9339
-150.48905
-185.41066
0
0
0
0
0
0
0
-179.1897
-192.36349
-200.72602
-135.76367
-210.28119
-146.27087
-163.927
-197.14597
-207.68892
-201.47867
-181.5805
-191.45922
-208.51312
-179.39137
0
0
-163.45259
0
-121.47863
-110.00048
0
0
0
0
0
0
0
0
-104.49643
-181.81594
-168.1462
-150.78588
-125.33855
-149.25052
-133.74553
0
-128.50219
0
0
0
0
0
0
-129.25465
0
-98.717509
0
0
0
-164.1298
-199.302
-123.40326
-185.17456
-212.25696
-135.51204
-153.31208
-165.86076
-153.69933
-174.00893
-180.95893
-162.32565
-160.78758
-192.62169
-113.39069
0
0
-105.33123
0
-118.86227
-90.779488
-118.38578
0
-121.33713
0
-126.16863
0
0
-168.64646
-211.45952
-184.5918
-165.7345
-164.05205
-201.76674
-173.37859
-100.787
0
0
0
0
0
0
-174.43455
-203.87749
-207.85986
-172.84633
-172.55695
-214.75656
-155.61443
0
0
0
0
0
0
0
0
0
0
0
0
0
0
0
0
0
0
0
0
0
0
0
0
0
0
0
0
0
0
0
0
0
0
0
0
0
0
0
0
0
0
0
0
0
0
0
0
0
0
0
0
0
0
0
0
0
0
0
0
0
0
0
0
0
0
0
0
0
0
0
0
0
0
0
0
0
0
0
0
0
0
0
0
0
0
0
0
0
0
0
0
0
0
0
0
0
0
0
0
0
0
0
0
)


2246
(
0
0
0
0
0
0
0
0
0
0
0
-18.62459
0
0
0
0
0
0
0
0
-20.120306
-90.643895
-95.682835
-81.237324
0
-23.629421
0
-74.786066
-22.17464
0
0
0
0
0
0
0
-21.43163
0
0
0
0
0
0
0
0
0
0
0
0
0
0
-134.75438
0
0
0
-146.61468
0
0
-105.47487
0
0
0
0
0
0
0
0
0
0
0
0
0
0
0
0
0
0
0
0
0
0
0
0
0
0
0
0
-11.082868
0
0
0
0
0
0
0
0
0
-78.445481
-26.801796
0
0
0
0
0
0
-24.554864
0
0
0
0
-81.37112
0
-32.512081
0
0
0
0
0
0
0
0
0
0
0
0
-112.15827
0
0
-118.201
0
0
0
0
0
0
0
0
0
0
0
0
0
0
0
-46.459321
0
0
0
0
-11.748874
-57.689539
0
0
0
-80.049764
-125.65932
0
0
0
0
-116.88557
-68.242273
0
0
-46.927462
-58.330554
-118.10619
0
-56.149031
0
0
-120.55426
0
0
0
0
0
-72.056386
0
0
-39.026227
-46.032066
-110.56107
0
0
0
0
0
0
0
0
0
-64.752519
-62.297972
0
-44.031971
-51.983642
0
-26.64455
0
0
0
0
0
0
0
-12.382656
0
-37.525395
-40.741735
0
-20.388265
0
0
0
0
0
0
0
-11.763314
-15.973767
-17.137519
-16.122222
-14.0564
-13.562855
-14.91903
0
0
0
0
0
0
0
0
0
0
0
0
0
0
0
0
0
0
-140.2235
0
-167.73808
-159.75007
0
0
-139.58269
0
0
0
0
0
0
0
0
0
0
0
-107.58948
0
-110.77268
-115.06537
0
-122.88242
0
0
0
-18.607501
-17.017135
-17.243045
-21.822938
-14.510463
-20.906733
-18.932783
-115.25558
-92.857352
-95.646939
-112.33488
-113.4402
-121.11133
-90.957974
-139.68253
-108.54027
-104.80646
-117.72812
-132.50509
-129.22265
-116.57451
-75.94522
-90.756737
-83.264955
-67.486447
-73.951428
-94.403663
-68.718874
-27.080081
-20.750938
-25.383739
-26.896399
-28.968121
-22.281587
-25.601448
-60.54311
-75.85264
-74.111927
-62.522722
-64.136754
-73.469926
-60.75208
-22.232245
-19.336033
-20.926038
-26.068355
-18.242196
-25.214994
-23.893203
0
0
0
0
0
0
0
0
-11.037275
0
0
0
-38.363161
0
-10.700119
-13.95991
0
0
-53.349197
-37.102518
-43.472966
0
-82.405802
0
0
0
-62.028484
0
0
0
0
0
0
0
0
0
0
0
0
0
0
0
0
0
0
0
0
0
0
0
0
-111.36544
-154.68788
0
0
-129.40744
0
-160.89787
0
-128.43322
0
-139.78418
0
0
0
-92.631304
-97.515397
0
0
0
0
0
0
0
0
0
0
0
-12.481555
0
0
0
-9.5128589
-10.881439
0
-14.062322
0
0
-11.08056
0
-12.400001
-9.1063932
-13.726591
-9.0077092
0
-11.392885
0
-11.179257
0
0
0
0
0
0
0
0
0
0
0
0
0
0
0
0
0
0
0
0
-58.864349
-53.888242
-32.14836
-51.312022
-88.086375
-69.382709
-83.037596
-12.658239
-37.287967
-28.539589
-38.272834
-41.887579
-35.942758
-53.695987
-55.058776
-89.182072
0
0
-62.557119
-103.39062
0
0
0
0
0
0
0
0
0
0
0
0
0
0
0
-59.967312
-136.00864
-101.73655
0
-105.89632
0
-97.119381
0
-11.695444
0
0
0
-44.202094
0
0
-55.078307
0
0
0
0
-72.886486
-14.697362
-61.153868
-37.897223
-61.77439
-45.087504
-50.015727
-100.06474
0
-91.239883
0
0
-70.316798
-130.15621
0
0
0
0
0
0
-78.940021
0
0
0
0
0
-55.856265
0
0
-119.53952
-59.450663
-89.897384
-104.5699
-105.64956
-82.688183
-146.00845
0
-69.797058
-137.38432
-142.76591
0
0
-73.032887
-75.645867
-44.085889
-112.22477
-127.02907
-47.562285
-63.485305
-112.75337
-137.7639
-96.361407
0
-80.485197
0
-107.14431
-148.17034
-149.4468
0
0
0
0
0
-121.91319
-133.00145
0
0
0
0
0
-86.381065
-135.3143
-143.20921
-93.488512
0
0
-109.60867
-157.83851
0
0
0
0
0
0
0
0
0
0
0
-72.451324
-162.93082
0
0
-124.75776
-87.642951
-179.71204
0
-188.25909
0
0
-191.14499
0
0
0
0
0
0
0
0
0
-146.86046
0
0
-96.744631
-182.42458
0
-127.43057
-162.66322
-173.68053
-180.03197
-142.37666
-164.07632
-177.11377
0
0
-148.94875
-191.93668
-111.40186
0
0
-177.59205
0
0
0
0
-111.62739
0
0
-150.31283
-155.35958
0
0
-173.64296
0
-189.52583
0
0
0
0
0
0
0
0
0
0
0
0
0
0
0
0
0
0
0
0
0
0
0
0
0
-13.648644
-13.355235
0
0
-10.283233
0
-14.817827
-16.431382
-14.491106
0
-16.976878
-11.740043
-19.429704
0
-34.650319
-43.346473
-47.033822
-51.72793
-37.71527
0
-39.485745
0
0
0
0
0
0
0
-28.792856
0
-27.526575
-38.230804
-32.890283
0
0
0
0
0
0
0
0
-31.132746
-83.821667
-91.135963
-83.145576
0
0
-106.37551
-78.333611
-145.30659
-118.16848
-147.50981
-124.64064
-144.45594
-142.81166
-123.41243
-80.768493
-99.016776
-110.65965
-116.56026
-108.14063
-81.735114
-101.2165
-71.363509
-81.548889
-87.71316
-72.689121
-97.135885
-74.502191
-75.836701
0
0
-82.421269
-99.270524
-90.478668
-101.49652
-70.793249
0
-70.772325
-59.550002
-84.695118
-86.338196
-70.347733
-61.239463
-62.695359
-57.271893
-45.836327
-51.373984
-62.104266
-50.484611
-55.95222
-68.484866
-70.383172
-59.911808
-51.782978
-72.240254
-55.450797
-63.499154
-67.96862
-121.78581
-116.75611
-57.765145
-112.72452
-67.448434
-59.352396
0
0
0
-74.341974
0
0
-62.133457
0
0
-93.348982
-104.65912
0
0
-81.057757
-24.429348
-17.513843
0
-22.776008
-18.350057
-21.756463
-23.639099
-49.451421
-47.471524
-67.067213
-90.484449
-51.088946
-44.832816
-88.563563
0
-46.862987
0
0
-39.63824
0
-81.722047
0
-49.92685
-44.828599
-84.949989
0
-54.297141
-84.90744
-33.900644
-32.131387
-38.798882
-42.076607
-35.120564
-41.789463
-31.628725
-32.385758
-33.512338
-45.120561
-41.296834
-31.917253
-43.293073
-31.292973
-54.526467
-100.61414
-111.7901
-55.832883
-54.335522
-57.572521
-101.01111
0
0
0
0
0
0
0
-56.694161
-73.527285
-59.018295
-46.720283
-45.332379
-60.363322
-68.052583
0
-59.612813
-79.669397
-66.621856
-72.119211
-67.940019
0
0
-49.940934
0
0
0
-60.578498
0
-48.170619
-53.047034
-41.294797
-43.643231
-52.841203
-48.514686
-39.931085
-48.763276
-63.743119
-45.695089
0
-56.165807
-48.846852
-39.408731
-39.938764
0
0
0
0
0
-31.85155
-47.354491
-34.280534
-43.203778
-24.804956
-34.179822
-49.719516
-39.449758
-18.294424
-16.07141
0
0
-14.307137
-21.195557
0
-19.304099
-17.470166
0
-15.325003
-15.429663
-22.505462
0
-14.88689
0
0
0
0
0
0
-26.639092
-30.919903
-35.062262
-36.250314
-29.66557
-28.837933
-32.486286
-23.38243
-29.932279
-35.880067
0
-27.276616
0
-30.666845
-20.493222
0
0
0
0
0
-25.599313
-24.523992
-17.975542
-34.703977
-18.777489
-28.045922
0
-30.552072
0
0
0
0
0
0
0
0
0
-18.666778
-18.817498
-16.293916
-20.547097
-26.193853
-23.411932
-22.801142
0
-73.356566
0
0
0
0
0
0
0
0
0
0
0
0
0
0
0
0
0
0
0
0
0
0
0
0
-75.478261
-70.474564
0
0
-68.419668
-79.599242
0
-95.092658
-100.25679
0
0
-131.60091
0
-72.634056
0
0
0
0
0
0
0
0
-77.832961
0
0
0
-87.317933
-80.567476
0
0
0
0
0
0
0
-75.819435
-65.110068
0
0
0
-77.824563
-64.339251
-119.06648
-108.73436
-80.493236
0
0
-133.43244
-99.814141
0
0
-71.975996
-88.189818
0
0
0
-67.104173
-90.509889
0
0
0
0
-93.951566
-100.22578
0
0
-95.415824
0
-97.934982
0
0
0
0
0
0
0
0
0
0
0
0
0
0
0
-38.506427
0
0
0
-39.320537
0
0
0
0
0
0
0
0
0
0
0
0
0
0
-165.60776
-123.65732
-134.65851
-139.91934
-99.737629
-177.42576
-171.44527
-149.07929
-133.85071
-143.74378
-166.56665
-176.1359
-148.97731
-149.49314
-164.87925
-120.99845
-180.07398
-181.30001
-150.21759
-131.84992
-129.39762
-137.72163
-159.89206
0
-96.944668
-174.30953
-115.35923
0
0
0
0
0
0
0
0
0
0
0
0
0
0
0
0
0
0
0
0
0
0
0
0
0
0
0
0
0
-93.020675
0
0
-107.30621
-60.427931
-95.681013
-99.688941
0
0
0
-119.52289
-103.58763
0
0
-122.79712
-115.07818
0
-109.55335
0
0
0
-112.36305
-111.47343
0
-63.049897
-103.27184
0
0
0
0
0
0
0
0
0
0
-14.392854
-11.975418
0
0
0
0
0
0
0
0
0
0
0
0
0
0
0
0
-25.17251
0
0
-19.8237
0
0
-15.036406
0
-13.030924
-16.706278
-13.381562
0
-18.915123
-16.658703
-11.501728
-14.039744
-17.614221
-17.346579
-14.456399
-20.270882
0
0
-10.861828
-13.897616
0
0
-10.984681
-21.666802
0
0
0
0
-17.08632
-36.063954
-27.433545
-32.097226
-50.335862
-50.524561
-46.764523
-29.851987
-28.998484
-23.873386
-16.644118
0
-47.381345
0
-42.028602
-24.536765
-25.90923
-27.722724
-35.930784
-46.634795
-22.924732
-41.863166
-28.919585
0
0
0
0
0
0
0
-70.024408
-87.985496
-77.255143
-73.737545
-65.725231
-76.41546
-85.205801
0
0
0
0
0
0
0
0
0
-76.575284
0
-58.165874
0
-71.737034
-67.761631
-46.488105
-67.876381
0
-56.892035
0
-85.675901
0
0
0
0
0
0
0
0
0
0
0
0
0
0
0
0
0
0
0
0
0
0
0
0
0
0
0
0
0
0
0
0
0
0
0
0
0
0
0
0
0
0
0
0
0
0
0
0
0
-73.34451
-44.231144
-61.978583
-64.73355
-57.444532
-53.327043
-76.707749
-34.024584
-45.319815
-52.517587
-56.359501
-47.000205
-50.649517
-46.798433
-59.886196
-54.762982
-66.415651
-64.934015
-62.05709
-52.868979
-74.661954
-66.786563
-69.046941
-73.378593
-96.834016
-62.18981
-83.747845
-83.035094
-18.545845
-18.443109
-23.429899
-25.670125
-16.085648
-22.223981
-22.620951
-23.899342
-37.000195
-28.8486
-30.121859
-40.677827
-32.898841
-38.104431
-39.45025
-42.208024
-31.538534
-58.753555
-31.335937
-45.733731
-51.89086
-32.994299
-19.672276
-31.802035
-50.777077
-28.742531
-23.723491
-52.29763
-145.49218
-57.397774
-103.35355
-73.28742
-105.84609
-70.321491
-149.52138
-109.09381
-94.421647
-84.652041
-95.869577
-88.850252
-93.757938
-110.98599
0
0
0
0
0
0
0
-94.378535
0
-134.38555
0
-113.80821
-106.36351
0
-111.1453
-59.552495
-88.808246
0
-88.585387
-98.871897
0
-136.78772
-101.58292
-99.682364
-149.63929
-99.892557
-148.9591
-137.03869
-79.402975
0
0
0
0
-89.432182
0
0
0
0
0
0
0
0
0
0
0
0
0
0
0
0
0
0
0
0
0
0
-111.44318
-94.092551
-67.222216
-75.07191
-95.462129
-128.4514
-71.586725
-121.34231
-139.42148
-123.81297
-130.24748
-117.24297
-140.21096
-124.64548
-115.13424
-97.066789
-146.5677
0
-124.89248
-145.37262
0
-67.713387
0
0
0
0
0
-54.248559
-130.27104
-101.92028
-110.83389
-150.83756
-104.44717
-146.04472
-142.67458
-85.695054
0
0
0
-97.545732
0
0
-100.61539
-94.478639
-119.24833
-77.205056
-106.802
-71.696754
-106.83875
0
-17.562652
0
0
-14.767427
0
-21.195242
0
-26.401155
0
0
0
0
-32.160528
0
0
-53.197376
0
0
-41.18144
0
0
0
0
0
0
0
0
0
-27.289673
-49.214422
0
0
-32.428446
0
0
-51.248347
0
0
-67.408835
-63.215352
0
0
0
0
0
0
0
0
0
0
0
0
0
0
0
0
-72.847388
-78.483283
0
-75.905798
0
0
-17.454714
-20.442346
-22.258775
-25.7701
-18.016207
-21.052035
-24.112619
-45.100791
-51.587927
-40.412576
-46.648783
-68.164539
-60.821382
-49.834279
-32.332802
-45.155807
-36.46184
-41.768969
-48.224764
-37.622933
-55.308968
-51.516668
-56.265094
-62.469899
-76.152467
-47.131723
-65.199503
-72.333955
-34.799483
-29.860424
-56.516012
-53.298046
-30.522127
-35.307982
-61.634205
-54.346761
-80.578801
-88.447816
-81.636373
-72.119962
-78.525841
-57.607253
-94.291138
-70.147595
-83.846022
0
-89.72642
0
0
-122.52445
-97.755867
-85.088403
-106.43802
-101.48961
-100.12618
-110.52491
0
0
0
0
0
0
-66.782177
0
0
0
0
0
0
0
-111.41077
-75.317786
-78.322
0
-98.598155
-89.202057
0
-106.02055
-109.41183
-120.07253
-112.52076
-107.1624
-88.162327
-111.82306
0
0
0
0
0
0
0
0
0
0
0
0
0
0
0
0
0
0
0
0
0
-98.931854
-118.69617
-82.571067
-87.987892
-120.56835
-122.97438
-99.88232
-101.34933
-131.34812
-139.62069
-138.14732
-131.77721
-118.76128
-117.64428
0
-87.010261
0
0
-81.84862
0
-99.584671
0
-107.77761
0
-125.57573
-144.84516
-147.79651
-119.95305
-114.27534
-147.6483
-102.78309
-117.43918
-143.53767
-122.08264
0
0
-78.97207
-89.265628
0
0
-95.971986
0
-48.602839
-90.430033
-53.30834
-55.749957
-80.288762
-52.703533
-89.721888
-99.437469
-56.716358
-55.531138
-58.247693
-113.52433
-61.736368
-100.60128
-66.682442
-117.00733
-79.714293
-120.47487
-69.270884
-108.88339
-76.935917
-64.173946
-94.355679
-113.63912
-81.289809
-61.650173
-100.35678
-74.98091
-160.69944
-139.00167
-108.37458
-141.83764
-115.36439
-162.20649
-145.52195
-133.31136
-100.60085
-100.1584
-109.54594
-116.05094
-115.37426
-110.48092
-69.057465
0
0
0
0
-62.909052
-69.626184
-96.836071
0
0
-131.38228
0
-104.53019
-118.12275
-82.829642
-85.411445
0
0
0
-81.233806
-96.459692
-156.54716
-108.38625
-103.73755
-153.86191
-145.27432
-108.25447
-155.82995
-145.03373
-144.54033
-126.13535
-137.07356
-128.18229
-123.20811
-152.69281
0
0
-111.58985
-156.78131
0
0
-104.9431
0
0
0
0
0
0
0
0
0
0
0
0
0
0
0
-134.49167
0
-95.662318
0
-95.807992
0
0
0
-110.31071
-118.68141
0
-111.4421
0
0
0
0
0
0
0
0
0
-99.377381
0
0
0
0
-96.615916
-129.87826
-123.64534
-111.28243
-143.00161
-125.51457
-130.67149
-118.81982
-145.44553
-147.65875
-131.24578
-153.17383
-147.44208
-138.5112
-152.45308
-144.01914
-99.596171
-78.389935
-142.18528
-83.595292
-150.83017
-132.42654
-88.54884
0
0
-68.96433
0
-63.961666
-83.471612
-104.62789
-83.38717
0
0
0
-106.03422
-74.154766
-144.00976
-111.10672
-117.16634
-149.30679
-145.68564
-122.33371
-144.27233
-134.6165
-145.83901
-158.54047
-147.86106
-141.42289
-123.71933
-152.84404
-92.314168
-81.949107
-112.65615
-114.8443
-69.328067
-77.666678
-94.642299
-140.35321
-155.40352
-138.92781
-151.44339
-172.95312
-172.60082
-153.64056
-84.844926
-140.6685
-131.58238
-141.3367
-85.622022
-84.744681
-161.95999
-153.84139
-96.20075
-87.494361
-165.49019
-90.826991
-189.20196
-152.79366
-124.14318
-78.732788
-87.727767
-111.90832
-83.712012
-101.97207
-129.81805
-161.77136
-178.61463
-170.80846
-165.34844
-183.72412
-161.0751
-164.00281
-131.37022
0
0
-148.02026
0
-176.96546
-122.61652
-155.89956
-180.84246
-168.54797
-154.19166
-175.46295
-147.05172
-168.66933
0
0
-114.58352
0
0
0
0
0
0
0
0
0
0
0
0
-160.27775
-147.68566
-139.22521
-121.9482
-104.62324
-111.98766
-86.341164
0
-127.67616
0
-133.7303
0
0
-155.14445
-152.36485
-140.3974
-159.64879
-138.50327
-148.90858
-169.91411
-73.992134
0
-98.537452
0
0
0
-95.891081
0
0
0
0
0
0
0
-102.67533
-80.191724
-125.9671
0
-107.46343
-126.32151
0
-135.9306
-157.08837
-167.93691
-156.67292
-155.82047
-120.33145
-158.03015
-119.208
-152.08533
-143.83567
-143.98108
-128.66195
-153.99386
-120.31814
-171.60537
-175.9014
-169.56715
-165.90371
-182.01295
-169.75782
-181.85443
-171.21118
-192.47122
-183.8567
-196.49292
-174.67857
-193.30588
-181.80227
-155.00284
-142.54576
-174.82989
-159.65843
-160.73731
-137.23727
-173.10666
0
0
0
0
0
0
0
-148.93355
-167.33413
-167.04285
-121.95126
-189.51561
-129.85384
-136.04271
-159.61632
-189.11249
-179.97175
-148.41717
-164.80352
-199.15454
-142.95968
0
0
-127.12084
0
-94.251226
-82.580115
0
0
0
0
0
0
0
0
-85.984669
-156.79728
-137.78179
-128.48942
-102.54024
-122.56536
-110.65191
0
-108.60743
0
0
0
0
0
0
-106.7923
0
-96.670721
0
0
0
-151.83734
-181.40742
-106.61026
-164.97773
-177.78337
-117.25933
-143.37408
-164.23012
-164.09384
-168.85229
-165.96339
-174.42812
-167.25278
-173.49764
-93.693276
0
0
-92.102163
0
-97.511454
-81.787683
-90.379323
0
-82.083067
0
-87.823711
0
0
-160.7757
-175.62027
-177.41252
-169.33007
-171.02939
-175.24338
-160.20108
-86.757944
0
0
0
0
0
0
-154.86554
-189.15328
-171.67945
-154.22298
-157.48216
-176.56989
-138.07174
0
0
0
0
0
0
0
0
0
0
0
0
0
0
0
0
0
0
0
0
0
0
0
0
0
0
0
0
0
0
0
0
0
0
0
0
0
0
0
0
0
0
0
0
0
0
0
0
0
0
0
0
0
0
0
0
0
0
0
0
0
0
0
0
0
0
0
0
0
0
0
0
0
0
0
0
0
0
0
0
0
0
0
0
0
0
0
0
0
0
0
0
0
0
0
0
0
0
0
0
0
0
0
0
)


2246
(
0
0
0
0
0
0
0
0
0
0
0
-26.954674
0
0
0
0
0
0
0
0
-28.382474
-88.07456
-92.696628
-76.918863
0
-29.962493
0
-70.51073
-27.972388
0
0
0
0
0
0
0
-37.166102
0
0
0
0
0
0
0
0
0
0
0
0
0
0
-140.51149
0
0
0
-132.94181
0
0
-129.90476
0
0
0
0
0
0
0
0
0
0
0
0
0
0
0
0
0
0
0
0
0
0
0
0
0
0
0
0
-20.191365
0
0
0
0
0
0
0
0
0
-74.590625
-45.748487
0
0
0
0
0
0
-44.712939
0
0
0
0
-87.546118
0
-49.238568
0
0
0
0
0
0
0
0
0
0
0
0
-106.80139
0
0
-117.61611
0
0
0
0
0
0
0
0
0
0
0
0
0
0
0
-41.338356
0
0
0
0
-21.249125
-48.694238
0
0
0
-65.264425
-112.91987
0
0
0
0
-111.27053
-58.29289
0
0
-47.16033
-35.91825
-103.88267
0
-44.793412
0
0
-105.2359
0
0
0
0
0
-56.511603
0
0