/*--------------------------------*- C++ -*----------------------------------*\
  =========                 |
  \\      /  F ield         | OpenFOAM: The Open Source CFD Toolbox
   \\    /   O peration     | Website:  https://openfoam.org
    \\  /    A nd           | Version:  8
     \\/     M anipulation  |
\*---------------------------------------------------------------------------*/
/*   Windows 32 and 64 bit porting by blueCAPE: http://www.bluecape.com.pt   *\
|  Based on Windows porting (2.0.x v4) by Symscape: http://www.symscape.com   |
\*---------------------------------------------------------------------------*/
FoamFile
{
    version     2.0;
    format      ascii;
    class       labelListList;
    location    "constant/vegetation";
    object      globalFaceFaces;
}
// * * * * * * * * * * * * * * * * * * * * * * * * * * * * * * * * * * * * * //


923
(

1011
(
5962
5966
5971
5974
5977
5978
5983
5984
5991
5992
5994
5995
5996
6002
6005
6006
6007
6012
6016
6017
6018
6023
6025
6036
6038
6179
6184
8291
8292
8295
8296
8297
8298
8299
8303
8304
8305
8306
8310
8312
8315
8316
8317
8318
9207
9208
9209
9210
9211
9213
9214
9215
9216
9217
9218
9219
9220
9221
9223
9224
9225
9227
9229
9230
9231
9232
9233
9237
9238
9239
9240
9241
9242
9243
9244
9245
9246
9265
9267
9269
9270
9271
9272
9273
9274
9275
9276
9277
9278
9279
9281
9282
9286
9287
9288
9289
9290
9291
9292
9293
9294
9295
9296
9297
9298
9299
9300
9301
9302
9303
9304
9305
9306
9307
9308
9309
9310
9311
9312
9313
9314
9315
9317
9318
9319
9320
9321
9322
9323
9324
9325
9326
9327
9328
9329
9330
9336
9337
9338
9339
9340
9341
9342
9343
9344
9345
9346
9347
9348
9349
9350
9351
9352
9353
9354
9355
9356
9357
9358
9359
9361
9362
9363
9364
9368
9369
9370
9371
9372
9373
9374
9375
9376
9377
9378
9379
9380
9381
9382
9383
9384
9385
9386
9387
9389
9396
9400
9401
9567
9570
9598
9600
9602
9604
9606
9608
9610
9612
9614
9616
9620
9624
9628
9632
9636
9640
9644
9649
9650
9651
9652
9653
9654
9655
9656
9657
9658
9659
9660
9661
9662
9663
9664
9665
9666
9667
9668
9669
9670
9671
9672
9673
9674
9675
9676
9677
9682
9683
9684
9685
9686
9687
9688
9689
9690
9691
9692
9693
9696
9697
9699
9700
9701
9702
9703
9704
9705
9706
9707
9708
9709
9717
9718
9719
9720
9721
9722
9763
9764
9765
9766
9771
9772
9773
9774
9792
9793
9794
9795
9796
9797
9798
9799
9800
9801
9802
9803
9804
9805
9806
9807
9808
9809
9810
9811
9812
9813
9814
9815
9816
9817
9818
9819
9820
9821
9822
9823
9824
9825
9826
9827
9828
9829
9830
9831
9832
9833
9834
9835
9836
9837
9838
9839
9840
9841
9842
9843
9844
9845
9846
9847
9848
9849
9850
9851
9852
9853
9854
9855
9856
9857
9858
9859
9860
9861
9910
9911
9912
9913
9923
9924
9925
9926
9927
9928
9929
9930
9931
9932
9934
9936
9938
9940
9942
9944
9946
9948
9949
9950
9951
9952
9953
9954
9955
9956
9957
9958
9959
9960
9961
9962
9963
9966
9967
9968
9969
9974
9975
9976
9977
9978
9979
9980
9981
9982
9983
9986
9987
9988
9989
9990
9991
9992
9993
9995
9996
9997
9998
9999
10000
10001
10002
10003
10004
10005
10006
10007
10008
10009
10010
10011
10012
10013
10014
10015
10016
10017
10018
10019
10020
10021
10025
10026
10027
10028
10029
10030
10031
10032
10033
10034
10035
10036
10037
10038
10039
10040
10041
10042
10043
10044
10045
10069
10070
10071
10072
10073
10074
10075
10076
10077
10078
10079
10080
10081
10084
10085
10086
10087
10088
10089
10090
10091
10092
10093
10094
10095
10096
10097
10106
10107
10108
10109
10110
10111
10112
10113
10114
10115
10116
10117
10118
10119
10120
10121
10122
10123
10124
10125
10126
10129
10131
10133
10137
10138
10157
10164
10165
10167
10169
10171
10172
10175
10176
10181
10230
10231
10232
10233
10276
10277
10469
10474
10488
10491
10492
10520
10521
10522
10523
10524
10525
10526
10527
10586
10587
10596
10597
10598
10599
10600
10601
10602
10603
10604
10605
10606
10607
10608
10609
10610
10611
10612
10622
10662
10663
10664
10665
10666
10667
10668
10669
10670
10671
10672
10673
10734
10735
10736
10737
10738
10739
10740
10741
10742
10746
10747
11316
11318
11320
11321
11323
11324
11326
11327
11328
11329
11332
11333
11334
11335
11338
11339
11341
11342
11343
11344
11346
11347
11348
11349
11350
11360
11364
11366
11367
11368
11369
11374
11375
11376
11377
11392
11393
11394
11395
11396
11397
11398
11399
11400
11401
11402
11403
11404
11405
11406
11407
11410
11411
11412
11413
11414
11415
11416
11417
11418
11421
11422
11423
11424
11425
11426
11427
11438
11439
11440
11441
11442
11443
11444
11445
11446
11447
11448
11453
11458
11460
11478
11540
11541
11551
11552
11553
11554
11555
11567
11569
11570
11572
11573
11575
11576
11600
11602
11603
11604
11605
11627
11628
11629
11630
11631
11633
11634
11636
11637
11638
11639
11641
11642
11643
11644
11646
11659
11663
11704
11705
11708
11709
11710
11711
11722
11727
11728
11729
11730
11731
11774
11775
11776
11777
11778
11779
11792
11793
11794
11796
11803
11804
11805
11806
11811
11818
11819
11820
11821
11822
11847
11848
11875
11877
11879
11881
11889
11891
11893
11917
11952
11953
11954
11955
11956
11957
11959
11960
11961
11962
11963
11964
11965
11966
11967
11968
11969
11970
11971
11972
11973
11974
11975
11976
11977
11978
11979
11980
11981
11982
11983
11984
11985
11986
11987
11988
11989
11990
11991
11992
11993
11994
11995
11996
11997
11998
11999
12000
12001
12002
12003
12004
12005
12006
12007
12008
12009
12010
12011
12012
12013
12014
12015
12016
12017
12018
12019
12020
12021
12022
12023
12024
12025
12026
12027
12028
12029
12030
12031
12032
12033
12034
12035
12036
12037
12038
12039
12040
12041
12042
12043
12044
12045
12046
12047
12048
12049
12058
12059
12060
12061
12062
12063
12064
12065
12066
12067
12068
12069
12070
12071
12072
12073
12074
12075
12076
12077
12078
12079
12080
12081
12082
12083
12084
12085
12086
12087
12088
12089
12090
12091
12092
12093
12094
12095
12096
12097
12099
12100
12101
12102
12103
12104
12105
12106
12107
12108
12109
12110
12111
12112
12113
12114
12115
12116
12117
12118
12119
12120
12121
12122
12123
12124
12125
12126
12127
12128
12129
12130
12131
12132
12162
12163
12164
12165
12167
12168
12175
12176
12178
12179
12180
12181
12184
12185
12186
12187
12202
12203
12209
12210
12212
12213
12214
12215
12216
12217
12218
12219
12220
12221
12222
12223
12224
12225
12232
12233
12234
12235
12236
12237
12238
12243
12244
12245
12246
12247
12248
12249
12250
12253
12254
12258
12259
12260
12261
12262
12263
12264
12265
12272
12273
12274
12275
12276
12277
12278
12279
12280
12281
12282
12283
12284
12285
12298
12299
12300
12301
12302
12303
12304
12305
12306
12307
12308
12322
12323
12324
12325
12326
12327
12328
12329
12333
12334
12335
12336
12337
12349
12350
12368
12369
12370
)


1426
(
2088
5966
5974
5977
5978
5983
5984
5991
5994
5995
5996
6002
6003
6005
6006
6007
6012
6013
6016
6017
6018
6023
6025
6036
6038
6179
6184
6205
7807
7815
7817
7819
7820
7821
7826
7830
7832
7833
7834
7837
7838
7841
7845
7849
7851
7853
7855
7859
7860
7863
7865
7873
7874
7875
7876
7879
7881
7882
7883
7884
7885
7886
7890
7891
7893
7903
7906
7907
7908
7909
7914
7915
7916
7919
7920
7921
7922
7924
7925
7928
7930
7931
7932
7936
7951
7953
7957
7961
7963
7965
7967
7969
7972
7973
7974
7980
7981
7982
7983
7984
7985
7987
7988
7989
7990
7992
8001
8003
8016
8020
8024
8028
8032
8036
8045
8048
8053
8081
8082
8083
8084
8088
8089
8103
8104
8105
8106
8108
8109
8110
8117
8118
8119
8120
8123
8124
8125
8126
8127
8128
8132
8135
8136
8137
8138
8158
8159
8160
8161
8162
8163
8166
8167
8168
8169
8170
8172
8173
8176
8178
8179
8184
8187
8190
8193
8196
8199
8236
8243
8244
8245
8246
8250
8251
8253
8254
8255
8258
8259
8269
8270
8271
8273
8274
8275
8276
8278
8279
8281
8288
8291
8295
8296
8299
8303
8305
8306
8316
8317
8318
9207
9208
9209
9210
9211
9212
9213
9214
9215
9216
9217
9218
9219
9220
9221
9223
9224
9225
9226
9227
9228
9229
9230
9231
9232
9233
9235
9236
9237
9238
9239
9240
9241
9242
9244
9245
9246
9247
9265
9267
9269
9270
9271
9272
9273
9274
9275
9276
9277
9278
9279
9281
9282
9286
9287
9288
9289
9290
9291
9292
9293
9294
9295
9296
9297
9298
9299
9300
9301
9302
9303
9304
9305
9306
9307
9308
9309
9310
9311
9312
9313
9314
9315
9317
9318
9319
9320
9321
9322
9323
9324
9325
9326
9327
9328
9329
9330
9336
9337
9338
9339
9340
9341
9342
9343
9344
9345
9346
9347
9348
9349
9350
9351
9352
9353
9354
9355
9356
9357
9358
9359
9361
9362
9363
9364
9368
9369
9370
9371
9372
9373
9374
9375
9376
9377
9378
9379
9380
9381
9382
9383
9384
9385
9386
9387
9389
9396
9400
9401
9567
9570
9598
9600
9602
9604
9606
9608
9610
9612
9614
9616
9620
9624
9628
9632
9636
9640
9644
9649
9650
9651
9652
9653
9654
9655
9656
9657
9658
9659
9660
9661
9662
9663
9664
9665
9666
9667
9668
9669
9670
9671
9672
9673
9674
9675
9676
9677
9682
9683
9684
9685
9686
9687
9688
9689
9690
9691
9692
9693
9696
9697
9699
9700
9701
9702
9703
9704
9705
9706
9707
9708
9709
9717
9718
9719
9720
9721
9722
9763
9764
9765
9766
9771
9772
9773
9774
9792
9793
9794
9795
9796
9797
9798
9799
9800
9801
9802
9803
9804
9805
9806
9807
9808
9809
9810
9811
9812
9813
9814
9815
9816
9817
9818
9819
9820
9821
9822
9823
9824
9825
9826
9827
9828
9829
9830
9831
9832
9833
9834
9835
9836
9837
9838
9839
9840
9841
9842
9843
9844
9845
9846
9847
9848
9849
9850
9851
9852
9853
9854
9855
9856
9857
9858
9859
9860
9861
9910
9911
9912
9913
9923
9924
9925
9926
9927
9928
9929
9930
9931
9932
9934
9936
9938
9940
9942
9944
9946
9948
9949
9950
9951
9952
9953
9954
9955
9956
9957
9958
9959
9960
9961
9962
9963
9966
9967
9968
9969
9974
9975
9976
9977
9978
9979
9980
9981
9982
9983
9986
9987
9988
9989
9990
9991
9992
9993
9995
9996
9997
9998
9999
10000
10001
10002
10003
10004
10005
10006
10007
10008
10009
10010
10011
10012
10013
10014
10015
10016
10017
10018
10019
10020
10021
10025
10026
10027
10028
10029
10030
10031
10032
10033
10034
10035
10036
10037
10038
10039
10040
10041
10042
10043
10044
10045
10069
10070
10071
10072
10073
10074
10075
10076
10077
10078
10079
10080
10081
10084
10085
10086
10087
10088
10089
10090
10091
10092
10093
10094
10095
10096
10097
10106
10107
10108
10109
10110
10111
10112
10113
10114
10115
10116
10117
10118
10119
10120
10121
10122
10123
10124
10125
10126
10127
10128
10129
10130
10131
10133
10135
10137
10138
10139
10140
10141
10145
10146
10150
10155
10157
10159
10161
10164
10165
10167
10169
10171
10172
10175
10176
10181
10183
10185
10186
10187
10218
10219
10220
10221
10222
10223
10224
10225
10226
10227
10228
10229
10230
10231
10232
10233
10234
10235
10236
10237
10238
10239
10240
10241
10242
10243
10244
10245
10246
10247
10248
10249
10262
10263
10264
10265
10266
10267
10268
10269
10270
10271
10272
10273
10274
10275
10276
10277
10428
10429
10430
10431
10466
10467
10468
10469
10470
10471
10472
10473
10474
10475
10476
10477
10478
10479
10480
10486
10487
10488
10489
10490
10491
10492
10493
10494
10495
10496
10497
10498
10499
10500
10506
10507
10508
10509
10510
10511
10512
10513
10514
10515
10516
10517
10518
10519
10520
10521
10522
10523
10524
10525
10526
10527
10550
10551
10552
10553
10554
10555
10556
10557
10558
10559
10560
10561
10562
10563
10564
10565
10566
10567
10568
10569
10570
10571
10572
10573
10574
10575
10576
10577
10578
10579
10580
10581
10582
10583
10584
10585
10586
10587
10588
10589
10590
10591
10592
10593
10594
10595
10596
10597
10598
10599
10600
10601
10602
10603
10604
10605
10606
10607
10608
10609
10610
10611
10612
10613
10614
10615
10616
10618
10619
10620
10621
10622
10623
10624
10625
10626
10627
10628
10629
10630
10631
10632
10633
10634
10635
10636
10637
10638
10639
10640
10641
10642
10643
10644
10645
10646
10647
10648
10650
10651
10652
10653
10654
10655
10656
10657
10658
10659
10660
10661
10662
10663
10664
10665
10666
10667
10668
10669
10670
10671
10672
10673
10696
10697
10698
10699
10700
10701
10702
10703
10704
10705
10706
10707
10708
10709
10710
10711
10712
10713
10714
10715
10716
10717
10718
10719
10720
10721
10722
10723
10724
10725
10726
10727
10728
10729
10730
10731
10732
10733
10734
10735
10736
10737
10738
10739
10740
10741
10742
10746
10747
10767
10780
10791
10803
11316
11318
11319
11320
11321
11323
11324
11326
11327
11328
11329
11332
11333
11334
11335
11338
11339
11341
11342
11343
11344
11346
11347
11348
11349
11350
11360
11364
11366
11367
11368
11369
11374
11375
11376
11377
11392
11393
11394
11395
11396
11397
11398
11399
11400
11401
11402
11403
11404
11405
11406
11407
11410
11411
11412
11413
11414
11415
11416
11417
11418
11421
11422
11423
11424
11425
11426
11427
11438
11439
11440
11441
11442
11443
11444
11445
11446
11447
11448
11453
11458
11460
11478
11540
11541
11551
11552
11553
11554
11555
11567
11569
11570
11572
11573
11575
11576
11600
11602
11603
11604
11605
11627
11628
11629
11630
11631
11633
11634
11636
11637
11638
11639
11641
11642
11643
11644
11646
11659
11663
11704
11705
11708
11709
11710
11711
11722
11727
11728
11729
11730
11731
11774
11775
11776
11777
11778
11779
11792
11793
11794
11796
11803
11804
11805
11806
11811
11818
11819
11820
11821
11822
11847
11848
11875
11877
11879
11881
11889
11891
11893
11917
11952
11953
11954
11955
11956
11957
11958
11959
11960
11961
11962
11963
11964
11965
11966
11967
11968
11969
11970
11971
11972
11973
11974
11975
11976
11977
11978
11979
11980
11981
11982
11983
11984
11985
11986
11987
11988
11989
11990
11991
11992
11993
11994
11995
11996
11997
11998
11999
12000
12001
12002
12003
12004
12005
12006
12007
12008
12009
12010
12011
12012
12013
12014
12015
12016
12017
12018
12019
12020
12021
12022
12023
12024
12025
12026
12027
12028
12029
12030
12031
12032
12033
12034
12035
12036
12037
12038
12039
12040
12041
12042
12043
12044
12045
12046
12047
12048
12049
12050
12051
12052
12053
12054
12055
12056
12057
12058
12059
12060
12061
12062
12063
12064
12065
12066
12067
12068
12069
12070
12071
12072
12073
12074
12075
12076
12077
12078
12079
12080
12081
12082
12083
12084
12085
12086
12087
12088
12089
12090
12091
12092
12093
12094
12095
12096
12097
12099
12100
12101
12102
12103
12104
12105
12106
12107
12108
12109
12110
12111
12112
12113
12114
12115
12116
12117
12118
12119
12120
12121
12122
12123
12124
12125
12126
12127
12128
12129
12130
12131
12132
12162
12163
12164
12165
12167
12168
12171
12172
12175
12176
12178
12179
12180
12181
12184
12185
12186
12187
12202
12203
12205
12206
12209
12210
12212
12213
12214
12215
12216
12217
12218
12219
12220
12221
12222
12223
12224
12225
12232
12233
12234
12235
12236
12237
12238
12243
12244
12245
12246
12247
12248
12249
12250
12253
12254
12258
12259
12260
12261
12262
12263
12264
12265
12266
12267
12268
12269
12270
12271
12272
12273
12274
12275
12276
12277
12278
12279
12280
12281
12282
12283
12284
12285
12298
12299
12300
12301
12302
12303
12304
12305
12306
12307
12308
12322
12323
12324
12325
12326
12327
12328
12329
12333
12334
12335
12336
12337
12349
12350
12368
12369
12370
)


3895
(
1
17
18
19
20
21
22
23
108
109
111
112
113
114
115
116
117
118
119
121
122
123
124
125
126
127
128
129
130
131
132
133
137
138
139
140
141
142
143
144
145
146
147
148
149
150
151
152
153
154
155
156
157
158
159
160
161
162
163
164
168
171
174
177
179
180
181
182
183
185
187
190
191
192
193
197
198
199
200
204
205
206
207
208
209
210
211
212
213
214
215
216
217
218
219
220
221
234
235
236
237
238
239
240
243
244
245
246
247
248
249
250
251
252
253
254
255
256
257
258
259
260
261
262
263
264
265
266
267
268
269
270
271
272
273
276
279
284
287
292
297
300
305
309
312
315
321
322
323
324
325
326
327
328
329
331
339
340
341
353
354
355
357
358
359
361
362
363
365
366
367
369
370
371
373
374
375
377
378
379
381
382
383
385
386
387
389
390
391
393
394
395
430
433
434
435
436
437
438
439
440
451
452
453
454
468
469
470
471
472
473
474
475
476
477
484
485
486
487
488
489
490
491
492
493
494
495
496
497
498
499
500
501
502
503
504
505
506
507
508
509
510
511
512
522
523
524
525
526
527
528
529
530
531
532
533
549
550
551
552
553
554
555
556
557
558
559
560
561
562
563
564
565
566
571
572
573
574
575
576
581
582
583
584
585
586
587
588
589
590
591
592
593
594
595
596
597
598
599
600
601
602
603
604
605
606
607
608
609
610
611
612
613
614
615
616
617
618
619
620
621
622
623
624
625
626
627
628
629
630
631
632
688
689
690
699
700
701
702
703
705
707
711
713
717
720
723
726
729
732
734
748
758
760
762
764
766
768
770
772
774
776
778
803
804
805
806
812
813
841
842
843
844
845
858
859
860
861
862
863
864
865
866
867
868
869
870
871
872
873
874
875
876
877
886
887
888
889
890
891
892
893
894
908
909
910
925
926
927
928
929
930
931
932
933
934
935
936
937
938
939
940
941
942
943
944
945
946
947
948
949
950
1028
1420
1794
1795
1796
1797
1798
1799
1800
1801
1802
1803
1823
1824
1825
1826
1827
1828
1829
1830
1838
1839
1840
1841
2087
2088
2267
2268
2269
2270
2271
2352
2353
2354
2355
2356
2357
2358
2360
2362
2364
2366
2368
2372
2373
2374
2376
2381
2382
2383
2384
2385
2386
2387
2388
2401
2402
2403
2404
2405
2406
2408
2410
2412
2414
2416
2418
2420
2422
2424
2426
2436
2437
2438
2439
2440
2441
2443
2445
2447
2450
2451
2475
2476
2477
2481
2482
2483
2487
2488
2489
2493
2494
2495
2505
2506
2507
2508
2509
2510
2514
2515
2516
2523
2524
2525
2526
2527
2528
2529
2530
2531
2532
2533
2534
2535
2536
2547
2548
2549
2555
2557
2558
2559
2561
2562
2563
2565
2566
2567
2569
2570
2571
2573
2574
2575
2577
2578
2579
2581
2582
2583
2585
2586
2587
2589
2590
2591
2593
2594
2595
2597
2598
2599
2602
2603
2604
2605
2606
2607
2608
2609
2612
2613
2614
2615
2620
2621
2622
2623
2624
2625
2626
2627
2635
2636
2637
2638
2639
2640
2641
2642
2643
2673
2674
2675
2676
2677
2678
2679
2680
2681
2682
2683
2684
2697
2698
2699
2700
2701
2702
2723
2724
2725
2726
2727
2728
2729
2730
2731
2732
2733
2734
2735
2736
2737
2738
2739
2740
2741
2742
2743
2744
2757
2758
2759
2760
2761
2762
2763
2764
2765
2766
2767
2768
2769
2770
2771
2772
2773
2774
2775
2776
2777
2778
2779
2780
2781
2782
2783
2804
2805
2828
2829
2830
2831
2832
2833
2834
2835
2842
2843
2844
2845
2846
2847
2848
2849
2850
2851
2860
2861
2862
2863
2864
2875
2876
2878
2879
2881
2882
2884
2885
2887
2888
2890
2891
2893
2894
2896
2897
2899
2900
2902
2903
2905
2907
2908
2909
2911
2912
2913
2914
2916
2917
2920
2921
2922
2923
2924
2925
2926
2927
2941
2942
2943
2944
2945
2946
2952
2953
2964
2965
2966
2967
2968
2969
2970
2971
2972
2973
2974
2981
2982
2983
2984
2985
2986
2987
2988
2989
2990
3001
3013
3014
3015
3016
3020
3021
3022
3023
3024
3029
3030
3081
3279
3280
3281
3282
3283
3284
3285
3286
3287
3288
3293
3294
3447
3448
3449
3450
3526
3527
3528
3529
3530
3531
3532
3533
3534
3535
3544
3545
3546
3547
3552
3553
3568
3569
3570
3571
3576
3577
3582
3583
3584
3585
3586
3587
3588
3589
3590
3591
3592
3593
3594
3595
3596
3597
3598
3683
3698
3729
3768
3792
3793
3861
3862
3863
3864
3865
3866
3867
3868
3869
3870
3871
3872
3959
3960
4028
4199
4200
4310
4344
4345
4346
4347
4348
4349
4350
4351
4352
4353
4354
4355
4356
4357
4358
4359
4360
4515
4516
4595
4596
4799
5127
5128
5129
5130
5244
5245
5246
5247
5248
5250
5251
5252
5253
5254
5256
5262
5263
5276
5277
5278
5279
5280
5281
5282
5283
5285
5286
5287
5288
5289
5290
5291
5293
5295
5296
5297
5298
5299
5302
5309
5310
5325
5326
5327
5328
5329
5330
5331
5332
5333
5334
5335
5336
5337
5339
5340
5341
5342
5343
5344
5345
5346
5347
5348
5349
5350
5351
5352
5353
5357
5358
5359
5360
5364
5365
5366
5367
5368
5383
5384
5385
5386
5387
5388
5389
5390
5393
5394
5395
5396
5397
5398
5399
5400
5401
5402
5403
5404
5405
5406
5407
5408
5409
5410
5411
5412
5413
5414
5415
5416
5417
5418
5419
5420
5421
5422
5423
5424
5430
5431
5440
5441
5442
5443
5444
5445
5446
5447
5451
5452
5453
5454
5455
5456
5457
5458
5461
5462
5463
5464
5471
5472
5473
5474
5475
5476
5485
5486
5487
5488
5489
5490
5491
5492
5493
5494
5495
5496
5497
5498
5499
5500
5501
5502
5503
5504
5505
5506
5507
5517
5518
5519
5520
5521
5522
5526
5527
5528
5529
5530
5531
5532
5533
5534
5535
5542
5543
5544
5545
5546
5627
5633
5636
5642
5648
5649
5651
5706
5712
5724
5730
5742
5751
5769
5770
5771
5784
5785
5786
5787
5788
5789
5790
5791
5792
5793
5794
5795
5811
5821
5829
5830
5831
5832
5835
5836
5837
5838
5840
5841
5865
5866
5867
5868
5897
5898
5899
5906
5907
5914
5915
5937
5938
5939
5945
5946
5947
5950
5951
5952
5953
5954
5958
5959
5966
5974
5977
5978
5983
5984
5991
5994
5995
5996
6002
6003
6005
6006
6007
6012
6016
6017
6018
6023
6025
6036
6038
6039
6040
6179
6184
6201
6202
6203
6204
6205
6276
6278
6284
6285
6286
6287
6289
6291
6293
6294
6295
6296
6297
6298
6299
6300
6301
6302
6303
6308
6309
6310
6311
6312
6313
6314
6315
6346
6348
6350
6352
6359
6360
6362
6364
6366
6368
6370
6372
6373
6374
6375
6376
6377
6378
6379
6387
6388
6389
6390
6391
6392
6393
6394
6421
6422
6423
6427
6428
6429
6445
6446
6447
6448
6449
6450
6454
6455
6459
6460
6461
6465
6466
6467
6468
6469
6470
6471
6472
6473
6474
6475
6476
6477
6478
6479
6480
6487
6488
6489
6490
6491
6492
6493
6494
6495
6496
6497
6498
6502
6503
6504
6505
6506
6507
6508
6509
6510
6511
6512
6513
6514
6521
6522
6523
6524
6525
6526
6527
6528
6529
6530
6531
6532
6538
6539
6540
6541
6542
6543
6544
6545
6547
6548
6549
6551
6552
6553
6555
6556
6557
6559
6560
6561
6563
6564
6565
6567
6568
6569
6571
6572
6573
6575
6576
6577
6579
6580
6581
6583
6584
6585
6591
6592
6593
6594
6595
6596
6597
6598
6599
6600
6601
6602
6607
6608
6609
6610
6611
6612
6613
6614
6645
6646
6647
6648
6649
6650
6651
6652
6653
6654
6655
6656
6657
6658
6659
6660
6675
6676
6677
6678
6679
6680
6681
6682
6683
6684
6685
6686
6687
6688
6689
6690
6697
6698
6699
6700
6707
6708
6709
6710
6711
6712
6713
6714
6715
6716
6717
6718
6719
6720
6721
6722
6723
6724
6725
6726
6727
6728
6729
6730
6731
6732
6733
6734
6735
6736
6737
6738
6739
6740
6741
6742
6743
6744
6745
6746
6747
6748
6749
6750
6751
6752
6753
6754
6755
6756
6757
6758
6771
6772
6773
6774
6775
6776
6777
6778
6779
6780
6781
6782
6783
6784
6785
6786
6787
6788
6789
6790
6791
6792
6793
6794
6807
6808
6845
6846
6847
6848
6849
6850
6851
6852
6853
6854
6855
6856
6857
6858
6859
6860
6861
6862
6863
6872
6873
6874
6875
6876
6877
6878
6879
6880
6881
6882
6883
6884
6885
6886
6887
6976
6977
6978
6979
6980
6981
6982
6983
6985
6986
6988
6989
6991
6992
6994
6995
6997
6998
7000
7001
7003
7004
7006
7007
7009
7010
7012
7014
7023
7026
7029
7032
7035
7038
7045
7048
7051
7054
7067
7068
7069
7070
7071
7072
7073
7074
7082
7083
7084
7085
7086
7087
7088
7089
7093
7094
7102
7103
7104
7105
7106
7107
7108
7109
7110
7111
7112
7113
7114
7119
7120
7121
7124
7125
7126
7129
7130
7131
7134
7135
7136
7139
7140
7141
7151
7152
7153
7156
7157
7158
7161
7162
7163
7166
7167
7168
7219
7238
7239
7240
7241
7242
7243
7244
7245
7246
7247
7252
7253
7254
7255
7256
7257
7258
7259
7300
7301
7302
7395
7396
7398
7399
7401
7417
7421
7423
7424
7427
7429
7431
7432
7435
7437
7451
7455
7456
7487
7488
7489
7490
7494
7495
7496
7497
7498
7499
7503
7504
7505
7508
7511
7512
7513
7514
7515
7516
7517
7518
7519
7520
7521
7522
7523
7524
7525
7526
7527
7528
7529
7530
7531
7532
7533
7534
7535
7536
7537
7538
7539
7540
7541
7542
7543
7544
7545
7546
7547
7548
7549
7550
7551
7552
7553
7554
7621
7622
7623
7624
7625
7626
7627
7628
7629
7630
7631
7632
7633
7634
7635
7636
7637
7638
7639
7640
7641
7642
7698
7699
7700
7701
7702
7703
7704
7705
7706
7707
7708
7709
7710
7711
7712
7713
7714
7715
7716
7717
7718
7719
7720
7721
7722
7723
7724
7725
7726
7727
7728
7729
7730
7747
7759
7760
7761
7762
7763
7764
7765
7766
7767
7768
7855
7856
7857
7858
7951
7952
7953
7954
7955
7957
7958
7959
7963
7965
7966
7967
7968
7969
7971
7985
7999
8000
8004
8005
8006
8008
8009
8010
8011
8012
8013
8014
8015
8016
8017
8018
8019
8020
8021
8022
8023
8024
8025
8026
8027
8028
8029
8030
8031
8032
8033
8034
8035
8036
8037
8038
8039
8041
8042
8044
8045
8046
8049
8103
8104
8105
8106
8107
8110
8111
8117
8118
8119
8120
8138
8147
8148
8149
8150
8151
8152
8153
8154
8155
8156
8157
8182
8183
8184
8185
8186
8187
8188
8189
8190
8191
8192
8193
8194
8195
8196
8197
8198
8199
8200
8201
8202
8203
8205
8206
8208
8210
8211
8243
8244
8245
8246
8247
8250
8251
8264
8265
8266
8267
8268
8291
8292
8295
8296
8298
8299
8303
8304
8305
8306
8310
8316
8317
8318
8319
8320
8321
8387
8389
8391
8393
8394
8396
8397
8398
8399
8400
8401
8402
8403
8404
8405
8406
8407
8408
8409
8410
8411
8412
8413
8414
8415
8416
8417
8418
8419
8420
8421
8422
8423
8424
8425
8426
8427
8428
8429
8430
8431
8432
8433
8434
8435
8436
8437
8438
8439
8440
8443
8444
8445
8446
8452
8453
8458
8459
8460
8462
8463
8464
8466
8467
8468
8470
8471
8472
8473
8474
8475
8476
8477
8478
8479
8480
8481
8482
8483
8484
8485
8486
8487
8488
8489
8490
8491
8492
8493
8494
8495
8496
8509
8510
8515
8516
8521
8522
8523
8524
8525
8526
8527
8528
8529
8530
8531
8532
8533
8539
8540
8541
8542
8543
8544
8545
8546
8549
8550
8551
8552
8553
8554
8555
8556
8557
8558
8559
8560
8561
8562
8563
8564
8565
8566
8567
8568
8569
8570
8571
8572
8573
8574
8575
8576
8577
8578
8579
8580
8581
8582
8583
8584
8585
8586
8587
8588
8589
8590
8591
8592
8593
8594
8595
8596
8597
8598
8599
8600
8605
8606
8607
8608
8609
8610
8611
8612
8621
8622
8623
8624
8625
8626
8627
8628
8629
8630
8631
8632
8633
8634
8635
8636
8637
8638
8639
8640
8641
8642
8643
8644
8645
8646
8647
8648
8649
8650
8651
8652
8653
8654
8655
8656
8657
8658
8659
8660
8661
8662
8663
8664
8665
8666
8667
8752
8755
8761
8767
8770
8777
8816
8840
8866
8878
8879
8899
8905
8917
8926
8932
8933
8959
8960
8961
8976
8979
8993
8998
9001
9004
9005
9006
9009
9012
9015
9018
9021
9022
9023
9026
9029
9032
9037
9038
9039
9040
9041
9042
9043
9045
9091
9092
9093
9094
9173
9174
9181
9182
9183
9184
9185
9186
9187
9188
9189
9190
9191
9192
9193
9194
9195
9196
9197
9198
9199
9200
9201
9202
9207
9208
9209
9210
9211
9212
9213
9214
9215
9216
9217
9218
9219
9220
9221
9223
9224
9225
9227
9229
9230
9231
9232
9233
9235
9237
9238
9239
9240
9241
9242
9243
9244
9245
9246
9247
9265
9267
9269
9270
9271
9272
9273
9274
9275
9276
9277
9278
9279
9281
9282
9286
9287
9288
9289
9290
9291
9292
9293
9294
9295
9296
9297
9298
9299
9300
9301
9302
9303
9304
9305
9306
9307
9308
9309
9310
9311
9312
9313
9314
9315
9317
9318
9319
9320
9321
9322
9323
9324
9325
9326
9327
9328
9329
9330
9336
9337
9338
9339
9340
9341
9342
9343
9344
9345
9346
9347
9348
9349
9350
9351
9352
9353
9354
9355
9356
9357
9358
9359
9361
9362
9363
9364
9368
9369
9370
9371
9372
9373
9374
9375
9376
9377
9378
9379
9380
9381
9382
9383
9384
9385
9386
9387
9388
9389
9390
9391
9392
9393
9394
9395
9396
9397
9398
9399
9400
9401
9402
9403
9404
9405
9406
9407
9408
9409
9410
9430
9431
9433
9436
9439
9442
9444
9445
9493
9494
9495
9496
9497
9498
9499
9500
9501
9502
9503
9504
9505
9506
9507
9508
9509
9510
9528
9531
9538
9543
9548
9551
9554
9559
9560
9561
9562
9563
9564
9565
9566
9567
9568
9570
9596
9597
9598
9599
9600
9602
9604
9606
9608
9610
9612
9614
9616
9617
9618
9619
9620
9621
9622
9623
9624
9625
9626
9627
9628
9629
9630
9631
9632
9633
9634
9635
9636
9637
9638
9639
9640
9641
9642
9643
9644
9645
9646
9647
9648
9649
9650
9651
9652
9653
9654
9655
9656
9657
9658
9659
9660
9661
9662
9663
9664
9665
9666
9667
9668
9669
9670
9671
9672
9673
9674
9675
9676
9677
9678
9679
9680
9681
9682
9683
9684
9685
9686
9687
9688
9689
9690
9691
9692
9693
9694
9695
9696
9697
9699
9700
9701
9702
9703
9704
9705
9706
9707
9708
9709
9710
9711
9712
9713
9714
9715
9716
9717
9718
9719
9720
9721
9722
9747
9748
9749
9750
9751
9752
9753
9754
9755
9756
9757
9758
9759
9760
9761
9762
9763
9764
9765
9766
9767
9768
9769
9770
9771
9772
9773
9774
9775
9776
9777
9778
9779
9780
9781
9782
9783
9784
9785
9786
9787
9788
9789
9790
9791
9792
9793
9794
9795
9796
9797
9798
9799
9800
9801
9802
9803
9804
9805
9806
9807
9808
9809
9810
9811
9812
9813
9814
9815
9816
9817
9818
9819
9820
9821
9822
9823
9824
9825
9826
9827
9828
9829
9830
9831
9832
9833
9834
9835
9836
9837
9838
9839
9840
9841
9842
9843
9844
9845
9846
9847
9848
9849
9850
9851
9852
9853
9854
9855
9856
9857
9858
9859
9860
9861
9879
9889
9891
9899
9902
9905
9907
9910
9911
9912
9913
9922
9923
9924
9925
9926
9927
9928
9929
9930
9931
9932
9933
9934
9935
9936
9937
9938
9939
9940
9941
9942
9943
9944
9945
9946
9947
9948
9949
9950
9951
9952
9953
9954
9955
9956
9957
9958
9959
9960
9961
9962
9963
9966
9967
9968
9969
9974
9975
9976
9977
9978
9979
9980
9981
9982
9983
9984
9985
9986
9987
9988
9989
9990
9991
9992
9993
9994
9995
9996
9997
9998
9999
10000
10001
10002
10003
10004
10005
10006
10007
10008
10009
10010
10011
10012
10013
10014
10015
10016
10017
10018
10019
10020
10021
10022
10023
10024
10025
10026
10027
10028
10029
10030
10031
10032
10033
10034
10035
10036
10037
10038
10039
10040
10041
10042
10043
10044
10045
10061
10062
10063
10064
10065
10066
10067
10068
10069
10070
10071
10072
10073
10074
10075
10076
10077
10078
10079
10080
10081
10082
10083
10084
10085
10086
10087
10088
10089
10090
10091
10092
10093
10094
10095
10096
10097
10098
10099
10100
10101
10102
10103
10104
10105
10106
10107
10108
10109
10110
10111
10112
10113
10114
10115
10116
10117
10118
10119
10120
10121
10122
10123
10124
10125
10126
10129
10131
10133
10137
10138
10139
10140
10141
10150
10157
10164
10165
10167
10169
10171
10172
10175
10176
10181
10185
10187
10189
10218
10219
10220
10221
10222
10223
10224
10225
10226
10227
10228
10229
10230
10231
10232
10233
10234
10235
10236
10237
10238
10239
10240
10241
10242
10243
10244
10245
10246
10247
10248
10249
10262
10263
10264
10265
10266
10267
10268
10269
10271
10272
10273
10275
10276
10277
10428
10429
10430
10431
10466
10467
10468
10469
10470
10471
10472
10473
10474
10475
10476
10477
10478
10479
10480
10486
10487
10488
10489
10490
10491
10492
10493
10494
10495
10496
10497
10498
10499
10500
10507
10508
10511
10512
10514
10515
10516
10517
10518
10520
10521
10522
10523
10524
10525
10526
10527
10551
10553
10555
10556
10559
10560
10563
10565
10566
10567
10569
10571
10573
10575
10577
10578
10579
10580
10581
10582
10583
10584
10585
10586
10587
10588
10589
10590
10591
10592
10593
10594
10595
10596
10597
10598
10599
10600
10601
10602
10603
10604
10605
10606
10607
10608
10609
10610
10611
10612
10613
10614
10615
10616
10618
10619
10620
10621
10622
10623
10624
10625
10626
10627
10628
10629
10630
10631
10632
10633
10634
10635
10636
10637
10638
10639
10640
10641
10642
10643
10644
10645
10646
10647
10648
10650
10651
10652
10653
10654
10655
10656
10657
10658
10659
10660
10661
10662
10663
10664
10665
10666
10667
10668
10669
10670
10671
10672
10673
10696
10697
10698
10699
10700
10701
10702
10703
10704
10705
10706
10707
10708
10709
10710
10711
10712
10713
10714
10715
10716
10717
10718
10719
10720
10721
10722
10723
10724
10725
10726
10727