/*--------------------------------*- C++ -*----------------------------------*\
  =========                 |
  \\      /  F ield         | OpenFOAM: The Open Source CFD Toolbox
   \\    /   O peration     | Website:  https://openfoam.org
    \\  /    A nd           | Version:  8
     \\/     M anipulation  |
\*---------------------------------------------------------------------------*/
/*   Windows 32 and 64 bit porting by blueCAPE: http://www.bluecape.com.pt   *\
|  Based on Windows porting (2.0.x v4) by Symscape: http://www.symscape.com   |
\*---------------------------------------------------------------------------*/
FoamFile
{
    version     2.0;
    format      ascii;
    class       polyBoundaryMesh;
    location    "constant/vegetation/polyMesh";
    object      boundary;
}
// * * * * * * * * * * * * * * * * * * * * * * * * * * * * * * * * * * * * * //

13
(
    left
    {
        type            mappedPatch;
        inGroups        List<word> 1(mappedPatch);
        nFaces          0;
        startFace       15656;
        sampleMode      nearestPatchFace;
        sampleRegion    air;
        samplePatch     left;
    }
    right
    {
        type            mappedPatch;
        inGroups        List<word> 1(mappedPatch);
        nFaces          0;
        startFace       15656;
        sampleMode      nearestPatchFace;
        sampleRegion    air;
        samplePatch     right;
    }
    back
    {
        type            mappedPatch;
        inGroups        List<word> 1(mappedPatch);
        nFaces          0;
        startFace       15656;
        sampleMode      nearestPatchFace;
        sampleRegion    air;
        samplePatch     back;
    }
    front
    {
        type            mappedPatch;
        inGroups        List<word> 1(mappedPatch);
        nFaces          0;
        startFace       15656;
        sampleMode      nearestPatchFace;
        sampleRegion    air;
        samplePatch     front;
    }
    bottom
    {
        type            mappedWall;
        inGroups        List<word> 
2
(
wall
mappedPatch
)
;
        nFaces          193;
        startFace       15656;
        sampleMode      nearestPatchFace;
        sampleRegion    air;
        samplePatch     bottom;
    }
    top
    {
        type            mappedPatch;
        inGroups        List<word> 1(mappedPatch);
        nFaces          0;
        startFace       15849;
        sampleMode      nearestPatchFace;
        sampleRegion    air;
        samplePatch     top;
    }
    Building
    {
        type            mappedWall;
        inGroups        List<word> 
2
(
wall
mappedPatch
)
;
        nFaces          793;
        startFace       15849;
        sampleMode      nearestPatchFace;
        sampleRegion    air;
        samplePatch     Building;
    }
    air_to_vegetation
    {
        type            mappedWall;
        inGroups        List<word> 
2
(
wall
mappedPatch
)
;
        nFaces          0;
        startFace       16642;
        sampleMode      nearestCell;
        sampleRegion    air;
        offsetMode      uniform;
        offset          (0 0 0);
    }
    procBoundary3to0
    {
        type            processor;
        inGroups        List<word> 1(processor);
        nFaces          257;
        startFace       16642;
        matchTolerance  0.0001;
        myProcNo        3;
        neighbProcNo    0;
    }
    procBoundary3to4
    {
        type            processor;
        inGroups        List<word> 1(processor);
        nFaces          314;
        startFace       16899;
        matchTolerance  0.0001;
        myProcNo        3;
        neighbProcNo    4;
    }
    procBoundary3to5
    {
        type            processor;
        inGroups        List<word> 1(processor);
        nFaces          10;
        startFace       17213;
        matchTolerance  0.0001;
        myProcNo        3;
        neighbProcNo    5;
    }
    procBoundary3to10
    {
        type            processor;
        inGroups        List<word> 1(processor);
        nFaces          29;
        startFace       17223;
        matchTolerance  0.0001;
        myProcNo        3;
        neighbProcNo    10;
    }
    procBoundary3to11
    {
        type            processor;
        inGroups        List<word> 1(processor);
        nFaces          21;
        startFace       17252;
        matchTolerance  0.0001;
        myProcNo        3;
        neighbProcNo    11;
    }
)

// ************************************************************************* //
