/*--------------------------------*- C++ -*----------------------------------*\
  =========                 |
  \\      /  F ield         | OpenFOAM: The Open Source CFD Toolbox
   \\    /   O peration     | Website:  https://openfoam.org
    \\  /    A nd           | Version:  8
     \\/     M anipulation  |
\*---------------------------------------------------------------------------*/
/*   Windows 32 and 64 bit porting by blueCAPE: http://www.bluecape.com.pt   *\
|  Based on Windows porting (2.0.x v4) by Symscape: http://www.symscape.com   |
\*---------------------------------------------------------------------------*/
FoamFile
{
    version     2.0;
    format      ascii;
    class       scalarListList;
    location    "constant/air";
    object      divqrsw;
}
// * * * * * * * * * * * * * * * * * * * * * * * * * * * * * * * * * * * * * //


5
(

6090
(
0
0
0
0
0
0
0
0
0
-110.48197
0
-82.133584
0
0
0
-138.64038
0
0
0
-107.0798
0
0
0
0
-89.472977
0
0
0
0
0
0
0
0
0
0
0
0
-131.21733
0
0
-96.591186
0
0
-126.82835
0
-145.49539
0
-108.68063
0
0
0
-91.303195
0
0
0
0
0
-111.75624
0
0
0
0
0
0
0
0
-116.78826
0
0
0
0
0
0
0
0
0
0
-84.493491
0
0
0
0
0
0
0
0
0
0
0
0
0
0
0
0
0
-131.5592
0
0
0
0
0
0
-145.90308
0
0
0
0
0
0
0
0
0
0
0
0
0
0
0
0
0
0
0
0
0
0
0
0
0
0
0
0
0
0
0
0
0
0
0
0
0
0
0
0
0
0
0
0
0
0
0
0
0
0
0
0
0
0
0
0
0
0
0
0
0
0
0
0
0
0
0
0
0
0
0
0
0
0
0
0
0
0
0
0
0
0
0
0
0
0
0
0
0
0
0
0
0
0
0
0
0
0
0
-106.33528
0
0
0
0
0
0
0
0
0
0
0
0
0
0
0
0
0
0
0
0
0
0
0
0
0
0
0
0
0
0
0
0
0
0
0
0
0
0
-134.14306
0
0
0
0
0
0
0
0
0
-156.65306
0
0
0
0
0
0
0
0
0
0
0
0
0
-63.162876
0
-69.5913
0
0
-104.19415
-159.54933
0
-170.23082
-166.70737
0
0
0
0
0
0
0
-128.94512
0
0
0
0
0
0
-143.47858
-139.40124
-130.2655
0
-84.592615
0
-112.29009
-150.31111
-141.59522
-95.928577
-167.29463
-125.96091
0
0
0
0
0
-125.66018
0
0
-142.53992
0
0
0
-146.16681
0
0
0
0
0
0
0
0
0
0
0
-145.62683
0
0
0
0
0
0
0
0
0
0
0
0
0
0
0
0
0
0
0
0
0
0
0
0
0
0
0
0
0
0
0
0
0
0
0
0
0
0
0
0
0
0
0
0
0
0
0
0
0
0
0
0
0
0
0
0
0
0
0
0
0
0
0
0
0
0
0
0
0
0
0
0
0
0
0
0
0
-78.823031
0
-113.45805
-87.076279
0
-51.752394
0
0
-44.087014
0
-63.977892
0
0
0
0
0
0
0
0
0
0
0
-105.95655
-59.32493
-80.344471
-47.124418
0
0
0
0
0
0
0
0
0
0
0
0
0
0
0
-101.77484
-158.99711
-151.12458
0
-163.40431
0
0
0
0
0
0
0
0
0
-93.377749
-170.87282
0
-122.95058
-152.94815
0
-63.026862
0
0
0
0
0
0
0
-90.129565
-50.061167
-145.09564
-113.90862
-147.29389
0
-57.474117
0
0
0
0
0
0
0
0
0
0
0
0
0
0
0
0
0
0
0
0
0
0
0
0
0
0
0
0
0
0
0
0
0
0
0
0
0
0
0
0
0
0
-135.28724
0
0
0
0
0
0
0
0
0
0
0
0
0
0
0
0
0
0
0
0
0
0
0
0
0
0
0
0
0
0
0
0
0
0
0
0
0
0
0
0
0
0
0
0
0
0
0
0
0
-111.07354
-154.80284
0
0
0
0
-137.06138
0
0
-153.64635
0
0
0
-147.05699
-136.64372
0
-151.15745
0
0
0
0
0
0
0
0
0
0
0
0
0
0
0
0
0
0
0
0
0
0
0
0
0
0
0
0
0
0
0
0
-89.329128
0
0
0
0
0
0
-108.82777
0
0
0
0
0
0
0
0
0
0
0
0
0
0
0
0
0
0
0
0
0
0
0
0
0
0
0
0
0
0
0
0
0
0
0
-71.068226
0
0
0
0
0
0
0
0
0
0
0
0
0
0
0
0
0
0
0
0
0
0
0
0
0
0
0
0
0
0
0
0
0
0
-150.66307
0
0
0
0
0
0
0
0
0
0
0
0
0
0
0
0
0
0
0
0
0
0
0
0
0
0
0
0
0
0
0
0
0
0
0
0
0
0
0
0
0
0
0
0
0
0
0
0
0
0
0
0
0
0
0
0
0
0
0
0
0
0
0
0
0
0
0
0
0
0
0
0
0
0
0
0
0
0
0
0
0
0
0
0
0
0
0
0
0
0
0
0
0
0
0
0
0
0
0
0
0
0
0
0
0
0
0
0
0
0
0
0
0
0
0
0
0
0
0
0
0
0
0
0
0
0
0
0
0
0
0
0
0
0
0
0
0
0
0
0
0
0
0
0
0
0
0
0
0
0
0
0
0
0
0
0
0
0
0
0
0
0
0
0
0
0
0
0
0
0
0
0
0
0
0
0
0
0
0
0
0
0
0
0
0
0
0
0
0
0
0
0
0
0
0
0
0
0
0
0
0
0
0
0
0
0
0
0
0
0
0
0
0
0
0
0
0
0
0
0
0
0
0
0
0
0
0
0
0
0
0
0
0
0
0
0
0
0
0
0
0
0
0
0
0
0
0
0
0
0
0
0
0
0
0
0
0
0
0
0
0
0
0
0
0
0
0
0
0
0
0
0
0
0
0
0
0
0
0
0
0
0
0
0
0
0
0
0
0
0
0
0
0
0
0
0
0
0
0
0
0
0
0
0
0
0
0
0
0
0
0
0
0
0
0
0
0
0
0
0
0
0
0
0
0
0
0
0
0
0
0
0
0
0
0
0
0
0
0
0
0
0
0
0
0
0
0
0
0
0
0
0
0
0
0
0
0
0
0
0
0
0
0
0
0
0
0
0
0
0
0
0
0
0
0
0
0
0
0
0
0
0
0
0
0
0
0
0
0
0
0
0
0
0
0
0
0
0
0
0
0
0
0
0
0
0
0
0
0
0
0
-127.24253
-135.23281
0
-131.73737
-108.59148
-148.85643
-105.40211
0
-105.5687
0
0
0
0
0
-127.4838
0
0
0
-87.760938
-102.14957
-75.351316
0
-65.998258
-44.766022
0
-98.956906
-32.321362
-182.13201
-184.894
-166.49202
-170.78812
-189.09651
-197.18496
-191.99348
0
0
0
0
0
0
0
0
0
0
0
0
0
0
0
0
0
0
0
0
0
-155.01341
0
0
-95.796939
-154.63368
-199.34579
0
0
0
0
0
0
0
0
0
0
0
0
-113.43829
0
0
0
0
0
0
0
0
0
0
0
-100.162
-116.33197
-110.43446
-128.83316
-114.98761
-120.19129
-92.260887
0
0
0
0
0
0
0
-77.500687
-92.139562
-97.174022
-85.253586
-86.70581
-93.767627
-75.163169
-150.83547
-147.31572
-143.53651
-102.52702
-164.418
-124.8685
-127.08437
-161.93194
-159.54816
-129.79968
-143.01712
-156.99905
-141.0684
-148.37468
-128.12563
-109.25432
-120.39572
-108.46563
-120.32681
-110.34919
-126.89794
0
0
0
0
0
0
0
0
0
0
0
0
0
0
0
0
0
0
0
0
0
0
0
0
0
0
-130.19317
-80.39712
0
-93.820234
-99.686574
0
0
0
0
0
0
0
0
-66.147056
0
0
0
0
-101.36303
0
-161.04922
0
0
-75.02618
-169.3771
-179.04744
0
0
0
0
0
0
0
0
0
0
0
0
0
0
0
0
0
0
0
0
0
0
0
0
0
0
0
0
0
0
0
0
0
0
0
0
0
0
0
0
0
0
0
0
0
0
0
-130.19176
0
0
0
0
0
0
0
0
0
0
0
0
0
0
0
0
0
0
0
0
0
0
0
0
-116.64273
-104.9816
-126.27253
-87.970317
-99.964439
0
0
0
0
0
0
0
0
0
0
0
0
0
0
0
0
-153.592
-123.51094
-145.62468
-134.88576
-143.57157
0
0
0
0
0
0
0
0
0
0
0
0
0
0
0
0
0
0
0
0
0
0
0
0
0
0
0
0
0
0
0
0
0
0
0
0
0
0
0
0
0
0
0
0
0
0
0
0
0
0
0
0
0
0
0
0
0
0
0
0
0
0
0
0
0
0
0
0
0
0
0
0
0
0
0
0
0
0
0
0
0
0
0
0
0
0
0
0
0
0
0
0
0
0
0
0
0
0
0
0
0
0
0
0
0
0
0
0
0
0
0
0
0
0
0
0
0
0
0
0
0
-85.65849
-79.641111
-103.12833
0
0
0
0
0
0
0
0
0
0
0
0
0
0
0
0
0
0
0
0
0
0
0
0
0
0
0
0
0
0
0
0
0
0
0
0
0
0
-83.593223
0
0
-93.166869
0
-100.65989
-107.1719
-69.309103
0
0
0
0
0
0
0
0
0
-95.043685
0
0
0
0
0
-78.67599
-114.31766
-62.537869
0
0
0
0
0
0
0
0
0
0
0
0
0
0
0
0
0
0
0
0
0
0
0
0
0
0
0
0
0
0
0
0
0
-66.779207
0
0
0
-48.152894
0
0
0
0
0
0
0
0
-52.465003
-69.047492
-54.458012
-56.14809
-50.981183
0
0
0
0
0
0
0
0
-101.85626
-102.90385
0
-134.38245
-146.53536
-143.89635
-146.51874
-144.46945
-159.72136
-164.80162
-136.43877
-134.45595
-161.54354
-149.6293
0
0
0
-100.74925
0
0
0
-144.29711
-148.09307
-176.91211
-154.56781
-160.14117
-127.3057
-166.44308
-156.38645
-166.35958
-170.6035
-173.36942
-167.63125
-162.81204
-169.70354
0
0
0
-116.08065
-111.26492
0
-132.47748
0
0
0
-122.51834
-112.19495
0
-130.17152
0
-123.75533
-91.17005
-103.83771
-99.393757
-86.206592
0
0
0
0
0
0
0
0
0
0
0
0
0
0
0
0
0
0
0
0
0
0
0
0
0
0
0
0
0
-136.33941
0
-97.35492
-116.53894
-155.43802
-63.600792
-187.73756
-188.17992
-152.93866
-123.74895
-132.64151
0
-86.781372
-184.1402
-122.50872
-156.65647
-104.79357
-115.51385
-176.80834
-131.74379
-146.68489
-87.959264
-101.24909
-75.70148
-57.659475
-114.11194
-74.361848
-108.87997
0
-42.425771
-60.333123
-37.08525
-24.682461
-94.219502
-53.372379
-69.559987
-44.398514
-60.04139
-42.627476
-53.371374
-94.594907
-25.522947
-41.824947
-97.932817
-30.83366
-52.348894
-108.89869
-68.95683
-107.08649
-53.651683
-66.085578
-108.01918
-181.08168
-149.67023
-162.21838
-157.78047
-181.18822
-150.56161
-191.0897
-176.29542
-118.01441
-144.60905
-131.57683
-127.49493
-100.40243
-160.72644
-137.27402
-97.135907
-126.43133
-110.22263
-79.021652
-94.95155
-93.139241
-152.85546
-200.96746
-192.66308
-190.04802
-153.6874
-194.05823
-187.47147
-137.31356
-176.73123
-184.15415
-137.12901
-186.23615
-116.18626
-116.57865
-93.212798
-158.67455
-120.46213
-88.64889
-147.10839
0
0
0
0
0
0
0
0
0
0
0
0
0
0
0
0
0
0
0
0
0
0
0
0
0
0
0
0
0
-198.52821
0
-108.01901
-92.403814
0
0
0
0
0
0
0
0
0
-196.82833
-109.39461
-99.240942
0
0
0
0
0
0
0
0
0
0
0
0
0
0
0
-162.84365
0
0
-103.33254
-193.81186
-207.63925
-97.932393
0
0
0
0
0
0
0
0
0
0
0
0
0
0
0
0
0
0
0
0
0
-106.56057
-166.1173
-217.69935
0
-210.17743
-105.89409
0
-115.8048
-205.99131
0
-219.46967
-219.12889
-107.32353
-113.87689
0
0
0
0
0
0
0
0
0
0
0
0
0
0
0
0
0
0
0
0
0
0
0
0
0
-129.65033
-129.32383
-114.7608
-106.83061
-99.588355
0
0
0
0
0
0
0
0
0
0
0
0
0
0
0
0
0
0
0
0
0
0
0
0
0
0
0
0
0
0
0
0
0
0
0
0
0
0
0
0
0
0
0
0
0
0
0
0
0
0
0
0
0
-57.420275
-44.727223
0
-57.896117
-79.601701
-98.753885
-82.627057
0
-60.958438
-99.809443
-74.583136
0
0
0
-68.080685
-71.771128
-83.533114
0
-105.68625
-122.47568
-104.97851
-114.52365
-112.67769
-98.692003
-123.10732
-84.035242
-67.054432
-85.760535
-96.296094
-64.846743
-100.47193
-82.85715
0
0
0
-52.387709
0
0
0
-42.064838
-53.673738
-43.21869
-74.748987
-83.256561
-70.616522
-88.590646
0
0
0
0
0
0
0
0
0
0
0
0
0
0
0
0
-50.265471
0
-37.957442
-38.194314
0
0
-48.413772
-50.381704
-57.004128
0
-43.99706
-43.200363
0
0
0
0
0
0
0
0
0
-46.098777
-40.791701
0
-53.078166
-35.359661
-54.522638
-66.201815
-40.882799
0
0
-67.612983
-52.545586
-82.461049
-98.159342
-97.896065
-104.61642
-90.75891
-90.396071
-95.973084
-61.035655
-74.967588
-64.608182
-44.115408
-77.642361
-48.103882
-58.193131
-68.047192
-61.199802
-89.400451
-72.323575
-83.192285
-76.154881
-54.365912
-38.431456
-58.514939
-42.566344
-76.061539
-34.014085
-64.68833
-69.493307
0
-40.079634
0
0
0
0
-37.851449
0
0
0
0
0
0
0
0
0
0
0
0
0
0
0
0
0
0
0
0
0
0
0
0
0
0
0
0
-104.27102
-149.04754
-143.10521
-99.653155
-145.8951
-140.73358
-106.05773
-152.15045
-158.60251
-164.95777
-136.21731
-150.3457
-165.93039
-136.46742
-171.80009
-154.19142
-159.49249
-151.67389
-174.46858
-161.30849
-147.8557
-132.01041
0
0
0
0
-101.14527
-106.85653
-169.41688
-164.02869
-172.12641
-161.25717
-165.41224
-175.04254
-162.44906
-152.74502
-97.904426
-128.72478
0
-138.82781
0
-128.08693
0
-133.7249
-112.75837
0
-131.48944
0
-113.34474
-92.555688
-84.615733
-84.65719
-127.04095
-134.09525
-135.72077
-124.10372
-164.57748
-161.18961
-168.38
-163.93297
-165.53379
-161.95157
-153.56204
0
-58.101251
-70.436859
-116.61282
-86.455428
-99.971082
-99.879205
-153.16245
-133.38658
-132.48832
-131.96298
-144.16144
-140.59198
-141.87679
-157.52489
-156.05139
-161.32044
-141.90725
-161.79229
-152.48315
-148.96133
-83.118333
0
-76.214349
-122.20772
-115.10558
-129.07936
-105.6801
-74.807992
-64.85863
-76.511874
-117.48379
-97.62057
-103.03955
-112.20988
-78.871751
-112.88588
-129.3788
-87.888524
-76.467697
-126.74755
-115.77689
-95.674474
-79.901731
-61.746516
-51.030235
-80.9958
-62.708719
-94.586478
-141.77482
-132.44153
-145.61472
-151.98569
-132.52193
-151.66473
-141.99581
-129.812
-107.80836
-122.12266
-120.82902
-119.47572
-112.31366
-132.10982
-141.14579
-152.05699
-146.21389
-131.33264
-131.90322
-151.64454
-140.2974
-110.65543
-86.282002
-73.603982
-124.24579
-74.603994
-124.97556
-109.70434
-68.292687
-97.690805
-52.740012
-89.239594
-82.692335
-64.464844
-102.83518
0
0
0
0
0
0
0
0
0
0
0
0
0
0
0
0
0
0
0
0
0
0
0
0
0
0
0
0
0
0
0
0
0
0
0
0
0
0
0
0
0
0
0
0
0
0
-141.3818
-97.275465
-108.46955
0
-100.11327
-112.90724
0
0
0
0
0
0
0
0
0
0
0
0
0
0
0
0
0
0
0
0
0
0
0
0
0
0
0
0
0
0
0
0
0
0
0
0
0
0
0
0
0
0
0
0
0
0
0
0
0
0
0
0
0
0
0
0
0
0
0
0
0
0
0
0
0
0
0
0
0
0
0
0
-169.33534
0
-101.70973
-68.829132
0
0
-88.877063
-161.95594
-76.787658
0
-110.22763
-82.003921
0
0
0
0
0
0
0
0
0
0
0
0
0
0
0
0
0
0
0
0
0
0
0
0
0
0
0
0
-85.387891
0
0
0
-148.61863
-118.23976
-65.119126
0
0
-96.598432
0
0
-100.27165
0
0
0
0
0
0
0
0
0
-148.15923
-115.4222
-62.982213
0
-117.44982
-64.459476
0
0
0
0
0
0
0
0
0
0
0
0
0
0
0
0
0
0
0
0
0
-158.51576
0
0
-87.92654
-147.44568
-161.93796
-79.508618
-76.438762
-183.23121
-176.23892
0
-178.33676
-74.34255
0
0
0
0
0
0
0
0
-88.331227
-145.37321
-161.84293
-77.096383
-158.29754
-86.067523
-78.57485
0
0
0
0
0
0
0
0
0
0
0
0
0
0
0
0
0
0
0
0
0
0
0
0
0
0
0
0
0
0
0
0
0
0
0
0
0
0
0
0
0
0
0
0
0
0
0
0
0
0
-141.48167
0
0
0
0
0
0
0
0
0
0
0
0
0
0
0
0
0
0
0
0
0
0
0
0
0
0
0
0
0
0
0
0
0
0
-97.287107
0
0
0
0
0
0
0
0
0
0
0
0
0
0
0
0
0
0
0
0
0
0
0
0
0
0
0
0
0
0
0
0
0
0
0
0
0
0
0
0
0
0
0
0
0
0
0
0
0
0
0
0
0
0
0
-148.37544
-138.25817
-126.58162
0
-134.30118
-131.53322
0
0
0
0
0
0
0
0
0
0
0
0
0
0
0
0
0
0
0
0
0
0
0
0
0
0
0
0
0
0
0
0
0
0
0
0
0
0
0
0
0
0
0
0
0
0
0
0
0
0
0
0
0
0
0
0
0
0
0
0
0
0
0
0
0
0
0
0
0
0
0
0
0
0
0
0
0
0
0
0
0
0
0
0
0
-107.96651
0
0
-100.87843
0
0
-78.164042
-80.124146
0
0
-91.831334
0
0
-87.445234
0
-109.59474
0
-101.33138
0
0
0
0
0
0
0
0
0
0
0
-56.84118
-58.005057
0
-59.620168
0
-162.7557
-157.01527
-169.55422
-188.36585
-165.06443
-187.12435
-180.65788
-131.26598
-75.112592
-100.09371
-120.47534
-128.89239
-152.56558
-94.786095
0
0
0
0
0
0
0
0
0
0
0
0
0
0
-142.55717
-89.209475
-109.01131
-131.07371
-142.27811
-169.78282
-109.85072
0
0
0
0
-104.43467
-68.263607
-78.306285
0
0
0
0
0
0
0
0
0
0
0
0
0
0
0
0
0
0
0
0
0
0
0
0
0
0
0
0
0
0
0
0
0
0
0
0
0
0
0
0
0
0
0
0
0
0
0
0
0
0
0
0
0
0
-47.092505
0
-60.319961
0
0
-50.321312
0
-103.98946
-109.7251
-127.63815
-126.01987
-119.96738
-113.912
-102.31672
0
0
0
0
0
0
0
-116.54429
-139.73854
-150.1486
-154.78574
-135.32969
-131.58609
-132.59074
0
0
0
0
0
-147.98724
-114.80709
-169.39948
-154.8695
-167.84989
-142.99417
-130.40578
-145.69274
-120.50737
-134.20077
-150.39054
-127.02914
-138.25579
-145.58968
-118.84904
-121.21622
-110.10517
-105.43288
-129.62361
-113.55017
-121.64034
0
0
-29.65074
-26.078529
0
-21.439518
0
-85.234782
-73.807351
-75.260844
-63.691794
-72.365972
-73.06186
-62.348067
-56.045711
0
-63.157604
-42.369476
-53.305901
-65.867424
-46.318318
-168.77381
-159.06338
-176.8476
-187.62135
-169.8301
-173.34512
-185.62552
-154.4056
-133.86539
-147.78637
-138.20088
-137.83004
-124.5036
-148.67086
-108.97531
-96.296292
-109.34941
-97.777227
-83.027483
-96.918783
-83.67984
-184.6091
-180.26153
-189.54022
-171.72617
-180.33716
-196.14763
-180.11958
-118.32835
-100.95455
-162.12162
-105.02493
-135.91852
-140.8928
-85.507419
-161.68993
-113.22418
-120.94764
-143.30044
-166.95615
-184.55612
-137.6937
-161.94267
-153.20534
-182.53162
-122.82468
-184.18719
-161.21019
-127.36278
0
0
0
0
0
0
0
0
0
0
0
0
0
0
-78.194131
-81.375541
-134.67222
-78.669203
-107.07084
-100.35786
-54.76952
-135.75115
-137.94589
-158.9642
-166.66948
-138.33774
-142.25201
-163.93657
-127.14221
-135.5778
-111.78722
-124.15584
-143.25671
-137.92208
-145.45711
0
0
-73.006147
0
0
-75.263451
0
-133.59798
-150.58013
-149.30068
-154.16278
-133.10432
-148.35002
-153.59974
-154.64507
-151.34054
-149.42506
-155.07386
-148.71891
-155.1522
-157.84064
-129.65952
-153.6711
-155.82213
-99.576578
-169.85215
-117.75211
-115.38332
-159.61226
-147.38636
-154.17081
-165.11074
-149.18412
-161.81432
-163.54116
0
0
0
0
0
0
0
0
-66.945829
-69.452023
-56.638366
0
0
0
-53.323006
-120.40806
-83.638174
-72.915438
-91.140257
-86.299076
0
0
0
0
0
0
0
0
0
0
0
0
0
0
0
0
-121.36866
-98.569741
-121.19365
0
-111.13252
0
0
0
0
0
0
0
0
0
0
0
0
-80.92728
0
0
0
0
0
0
0
0
-106.57175
0
0
0
-98.047817
0
0
0
0
0
0
-112.72677
0
-83.816007
0
0
-98.864081
-65.184261
-72.906816
-64.172161
-66.878453
-85.575352
-73.043949
-76.008356
0
-45.969064
-51.379564
-50.12313
-34.729232
-42.675477
0
-69.745467
-55.670801
-60.277432
-58.392251
-57.637826
-66.657173
-50.05014
-56.485211
-49.759619
-61.351369
-40.836679
-63.701127
-44.780799
-54.592435
-59.198786
0
-68.655577
-50.634478
-65.078331
-59.777889
-49.792786
-69.203745
-95.292897
-79.413269
-83.719541
-80.301428
-78.939161
-69.808853
-49.053118
-33.443887
-37.306602
-41.008631
-39.728849
-48.014825
-41.249189
-185.51586
-179.14574
-177.86191
-192.82786
-200.30817
-204.01894
-192.24851
-167.85977
-185.18878
-175.03348
-188.94858
-198.60044
-186.61003
-191.26177
-177.43379
-176.32476
-177.97033
-187.32526
-165.71187
-183.03384
-178.62172
-190.84835
-177.13364
-204.86693
-192.22106
-197.1131
-186.82186
-192.60492
0
0
0
0
0
0
0
0
0
0
0
0
0
0
-148.81269
-115.64669
-110.09685
-130.55938
-176.16353
-169.37159
-136.35347
0
0
0
-89.410515
0
0
0
-77.46329
0
-75.537016
-93.614348
0
-97.636912
0
-111.9711
-79.285575
-137.14201
-87.721891
-117.02177
-73.127933
-132.43561
-136.48823
-141.90717
-176.48748
-124.8992
-164.48908
-110.0786
-151.69988
-146.4594
-187.59523
-168.23936
-191.76595
-180.68769
-152.47741
-162.10092
-106.46759
0
-80.15334
-97.956837
-83.480708
0
-124.75051
0
0
0
0
0
0
0
0
0
0
0
0
0
0
0
0
0
0
0
0
0
0
0
0
0
-81.267727
-66.922574
-71.741818
0
0
0
0
0
0
0
0
0
-91.539074
0
0
0
0
0
0
-75.949387
0
-67.513375
0
0
0
-95.861217
-97.631568
-86.774701
-79.885967
-90.593722
-87.527473
0
0
0
0
0
0
0
-151.36412
-128.45977
-117.54491
-134.77656
-175.59326
-171.96644
-141.67061
0
0
0
-87.641182
0
0
0
-95.3153
0
-82.936903
-95.731424
0
-106.12226
0
-99.646845
-73.547552
-110.94069
-58.83006
-109.46311
-102.76736
-56.962352
-139.31016
-155.73026
-188.61665
-132.65341
-179.57751
-121.1953
-146.82663
-139.9448
-179.1015
-146.40826
-181.72674
-177.89071
-145.39581
-143.72165
-94.238751
0
0
-87.589008
-80.061103
-100.09934
0
0
0
0
0
0
0
0
0
0
0
0
0
0
0
0
0
0
0
0
0
0
0
0
0
0
0
0
0
0
0
0
0
0
0
0
0
0
0
0
0
0
0
0
0
0
0
0
0
0
0
0
0
0
0
0
0
0
0
0
0
0
0
0
0
-117.30768
-95.340367
-101.47703
-81.888808
-89.810658
-62.97959
0
0
0
-70.857426
0
0
0
0
0
0
0
0
0
0
0
0
0
0
0
0
0
-71.913258
-111.63415
-95.771158
0
0
0
0
0
0
0
-83.478408
0
0
0
0
0
0
0
0
-59.690754
-74.776269
-90.700092
-75.042703
-74.242011
-72.247904
-61.7004
-51.63587
-56.096789
0
-73.911265
0
-65.115056
0
-102.99654
-114.13359
-88.500486
-119.92443
-101.90097
-104.10946
-117.07775
-95.034148
-117.39825
-103.78882
-85.88895
-85.557143
-112.80244
-94.477592
-91.452411
-71.105569
-79.990275
-86.398644
-87.986317
-78.434061
-96.162989
0
0
0
0
0
0
0
0
0
0
0
0
0
0
0
0
0
0
0
0
0
0
0
0
0
0
0
0
0
0
0
0
0
0
0
0
-81.881588
-92.059721
-91.816304
0
-88.501636
0
0
0
0
-71.759097
0
0
0
0
0
0
0
0
0
0
0
0
0
0
0
0
0
-85.264345
-109.42108
-72.57815
0
-103.65496
0
-94.263489
-103.47336
-135.6908
-108.42255
-102.88987
-125.22184
-97.268765
-113.12373
-82.179327
-108.87889
0
-50.10904
0
-91.885202
-94.095227
-77.838105
0
-68.931894
-84.926204
-96.462497
0
0
0
0
0
0
0
0
-65.584266
-77.084146
0
-85.268276
0
0
0
-85.050727
0
0
0
0
0
0
0
0
0
0
0
0
0
0
0
0
0
0
0
0
0
-104.21974
-130.56156
-109.09146
-134.65936
0
-102.24882
-137.86445
0
0
0
0
0
0
0
0
0
0
-128.54358
-110.45886
0
-141.58474
0
-102.24494
-124.89645
-136.77998
-102.56347
-96.956102
-135.95683
0
0
0
0
0
-130.56273
0
-123.14734
0
-143.40885
0
-152.77373
-148.30635
-154.40158
-151.47743
-143.77522
-155.32331
-151.60972
-129.22491
-87.062031
-92.543898
-83.966672
-108.79219
-117.9708
-106.58586
-159.99261
-188.77217
-172.67915
-166.93901
-162.54373
-174.01669
-165.86714
-160.48639
-176.41017
-172.84472
-167.91424
-161.63562
-175.84241
-154.11604
-147.53214
-141.41482
-119.12014
-148.00642
-130.9887
-154.38842
-144.8071
-145.95792
-143.95693
-110.00061
-149.46664
-129.63207
-152.00639
-132.19159
0
0
0
0
0
0
0
0
-103.05219
0
0
0
-97.880714
0
-154.35821
-180.51578
-168.88374
-164.21982
-158.667
-165.17288
-160.96076
-145.15449
-137.5331
-145.98056
-119.89627
-150.24501
-132.26567
-142.90151
-149.60687
-146.39912
-143.90355
-159.82112
-133.97551
-158.99951
-153.09191
-153.25582
-124.9094
-140.61353
-132.40315
-133.70136
-161.27048
-138.94248
-159.8644
-165.45973
-164.60178
-165.11134
-161.19707
-155.67
-160.26528
-138.51804
-134.66644
-142.799
-127.30621
-121.67723
-150.20684
-164.58274
-159.56202
-151.26647
-155.08936
-170.0142
-159.51435
-156.08362
-104.32051
-83.684784
-97.875248
-96.176834
-96.996747
-85.141228
-110.10049
-110.32521
-93.107697
-100.81424
-89.254334
-89.21458
-81.395116
-97.564119
-79.762555
-84.669674
-91.51451
-82.676288
-64.645931
-74.182071
-73.010381
-94.690013
-106.43751
-86.507657
-116.50043
-86.941862
-92.696666
-116.34807
0
-40.579533
-35.063922
-30.769379
-28.369625
-35.635469
-22.995828
-32.970905
-48.071041
-38.420688
-33.162329
-35.906846
-40.743927
-28.499678
-50.072913
-54.227514
-43.968
-37.858699
-51.323239
-42.784576
-46.006303
-32.165806
-42.714859
-33.05828
-31.184138
-35.999146
-38.234141
-27.898619
-26.885751
-26.351681
-27.651002
-19.496063
-31.201334
-23.686
-21.059242
-86.505673
-86.46449
-79.395615
-67.915432
-82.230098
-74.840858
-74.631578
-63.74988
-57.680331
-66.108248
-54.719518
-44.665889
-48.349725
-52.926092
-78.023952
-63.656277
-71.843429
-60.271957
-59.040529
-66.47704
-53.7361
-51.048666
-40.554348
-59.494512
-38.931734
-52.811761
-57.674382
-37.269116
-57.308738
-52.580055
-67.732558
-49.193591
-58.546334
-66.822068
-47.754949
-65.085029
-77.201609
-75.32962
-95.810764
-63.498384
-75.405502
-79.520429
-43.837575
-33.553071
-31.948853
-27.881422
-42.071746
-32.782024
-36.715079
-49.481032
-39.59281
-57.739842
-36.90381
-49.111091
-56.666832
-35.986209
-66.661785
-77.928064
-82.35768
-96.884628
-68.241697
-76.449497
-81.009014
-45.224936
-35.78016
-39.582793
-29.354177
-46.616472
-34.272657
-38.152159
-89.270809
-116.04563
-84.67379
-106.78876
-91.959739
-83.246274
-114.57429
-88.591201
-84.971646
-115.29818
-107.11725
-90.594304
-83.461167
-114.1561
-179.64287
-178.70024
-178.71504
-189.141
-197.31141
-190.32288
-194.80106
-159.80151
-156.97212
-176.49765
-177.63314
-147.57438
-164.64475
-153.74729
-177.88753
-159.36646
-179.65828
-181.40283
-160.4762
-182.43379
-156.94787
-183.01256
-176.09107
-169.20625
-191.0879
-172.17262
-177.24401
-188.89197
-160.9702
-170.21163
-158.23672
-153.4409
-180.5096
-171.05399
-159.67323
-122.37292
-138.66954
-122.80515
-112.66743
-128.31316
-111.94318
-130.62746
-189.53535
-192.96251
-209.31964
-196.8593
-193.59525
-203.13823
-189.59997
0
0
0
0
0
0
0
0
0
0
0
0
0
0
0
0
0
0
0
0
0
0
0
0
-133.49714
0
0
-112.45419
0
0
0
0
0
0
0
0
0
0
0
0
0
0
0
0
0
0
0
0
0
0
0
0
0
0
0
0
-100.769
-116.12465
0
0
0
-128.14876
0
-110.05727
0
-150.64144
0
-118.9338
0
-139.65164
0
0
0
0
0
0
0
0
0
0
0
0
0
0
0
0
0
0
0
0
0
-95.151117
-75.15017
-80.785096
0
0
-108.91659
0
-133.95759
-190.90374
-169.37446
-163.68308
-164.47164
-139.97256
-157.14615
-98.89882
-85.268539
0
0
0
-118.47433
0
-110.17141
0
-105.28948
-140.51018
0
-137.46821
-115.62156
-103.75462
0
-129.01976
0
-108.96966
0
-123.50787
0
0
0
0
0
0
0
0
0
0
0
0
0
0
0
0
0
0
0
0
0
0
0
0
0
0
0
0
-96.840992
-106.31313
0
0
0
-118.99447
-82.271448
-149.76869
-193.54059
-168.05821
-170.72785
-166.09675
-146.37543
-174.72016
-124.10964
0
-140.84849
-109.4097
-140.02864
-121.34
0
-110.2519
0
-89.829042
-135.01494
0
-114.54895
-131.09862
0
0
0
0
0
0
0
0
0
0
0
0
0
0
0
0
0
0
0
0
0
-170.44524
-122.63478
-126.17784
-147.09237
-184.54857
-142.60987
-192.7501
0
0
-83.623882
-102.9072
0
-100.22609
0
-82.116191
0
-84.385436
-104.10801
0
-102.6189
0
-122.92778
-84.844195
-142.54465
-103.33327
-122.2512
-85.047118
-142.62079
-160.54365
-180.72084
-205.61613
-178.49347
-195.44552
-157.38201
-179.12843
-163.42583
-195.3047
-175.10794
-216.50395
-158.87249
-204.46432
-180.24793
-120.87237
0
-100.8284
-138.76116
-118.70963
-83.395527
-140.33129
0
0
0
0
0
0
0
0
0
0
0
0
0
0
0
0
0
0
0
0
0
0
0
0
0
0
0
0
0
0
0
0
0
0
0
0
0
0
0
0
0
0
0
0
0
0
0
0
0
0
0
0
0
0
0
0
0
0
0
0
0
0
0
0
0
0
0
0
0
0
0
0
0
0
0
0
0
-145.00672
-151.56081
-107.26924
-97.273606
-146.30882
-150.34609
-98.278363
-162.77666
-159.84905
-187.25405
-135.83879
-163.73081
-185.75481
-131.69472
-176.31818
-210.03098
-214.8911
-183.97972
-206.98312
-177.4445
-182.95578
-139.27696
-99.809267
-89.082413
0
-137.46288
-90.350105
-103.30699
-175.52205
-181.8203
-201.92662
-212.3996
-175.05707
-204.28109
-182.23541
-144.01789
-107.7135
-148.39623
-97.628773
-142.63061
-149.41866
-99.099996
-139.20929
-88.291329
-107.60325
0
-138.53623
-89.371466
-105.62183
-155.13599
-157.62469
-114.77639
-116.12459
-157.62984
-112.27673
-156.42386
-192.36489
-198.33031
-215.07874
-199.20465
-209.52088
-190.76824
-196.5647
-144.74238
-128.36907
-91.375773
-93.623888
-137.22075
-139.54333
-100.15482
-195.03395
-214.69932
-222.1174
-191.12129
-217.75153
-195.23012
-190.273
-195.17568
-189.41031
-224.26924
-221.28945
-221.10592
-195.64902
-189.70209
-149.97966
-111.2558
-154.47777
-99.48647
-145.92629
-155.24759
-105.74922
-152.8574
-116.17131
-104.64219
-154.76474
-150.80153
-109.37786
-155.48416
0
0
0
0
0
0
0
0
0
0
0
0
0
0
0
0
0
0
0
0
0
0
0
0
0
0
0
0
0
-92.706495
0
0
0
0
0
0
0
0
0
0
0
0
0
0
0
0
0
0
0
0
0
0
-79.170546
0
0
0
0
0
0
0
0
0
0
0
0
0
-90.697194
0
0
0
0
0
0
0
0
0
0
-56.127144
-52.149723
-57.28598
0
0
-79.938295
0
-99.611591
-157.43914
-145.51012
-139.29376
-132.59828
-115.92276
-120.9346
0
-51.553927
0
0
0
-67.187149
0
-78.154563
0
-84.352302
-123.02408
0
-107.99609
-93.029819
-68.586681
0
-102.71929
0
-83.182393
0
-85.370846
0
0
0
0
0
0
0
-75.590682
0
0
0
0
-68.061904
0
-103.50659
-113.63308
-60.768827
-102.18932
-99.943964
-122.33623
-70.692578
-128.37968
-162.17064
-143.92504
-141.72117
-146.08037
-119.71155
-152.88182
-110.72042
-123.95914
0
-89.960567
-101.33182
0
-139.67183
-79.144869
0
0
0
-72.378907
0
0
-103.28181
-75.475272
-114.6549
-126.69765
-130.25621
-77.548741
-97.644058
-105.09853
0
-116.2361
-89.489408
-92.606945
0
-133.90232
0
0
0
0
0
0
0
0
0
0
0
0
0
0
0
0
0
0
0
0
0
0
0
0
0
0
0
0
0
0
0
0
0
0
0
0
0
0
0
0
0
0
0
0
0
0
0
0
0
-110.81213
-67.473963
-87.286143
-100.5125
-99.754272
-83.527742
-124.66924
-97.302549
0
-76.880043
-86.086437
0
0
-104.37141
0
0
0
-71.23733
0
0
0
-84.091099
0
-85.68576
-50.230052
-80.711786
-85.747934
0
-136.73024
-149.29028
-148.74996
-153.91155
-149.02306
-135.93484
-154.4664
-114.13784
-114.40388
-104.78276
-139.87166
-100.22438
-138.6627
-115.62526
-95.650112
-65.809557
-52.374757
-110.01911
-95.301113
-52.976738
-110.70491
0
0
-90.361605
0
0
-89.3943
0
0
0
-76.05311
0
0
-75.694616
0
-87.553674
-83.480253
-93.262249
-98.081016
-86.459848
-85.06034
-94.723805
0
0
0
0
0
0
0
0
0
-86.563861
0
0
-88.257291
0
-87.56777
-96.61994
-86.18177
-99.224851
-87.458399
-85.684137
-95.735162
0
0
0
0
0
0
0
0
0
0
0
0
0
0
-85.715369
0
-85.93126
-50.779255
-85.737275
-86.156044
-51.307397
-134.17514
-147.92281
-148.21548
-153.48548
-147.72635
-135.05099
-153.18069
-114.02779
-136.28047
-103.41109
-116.02822
-113.59457
-136.86112
-103.8772
-94.519828
-108.84308
-50.013964
-63.404563
-94.330672
-50.510237
-108.82502
-85.587754
0
-85.726879
0
-85.350672
-86.105835
-51.542094
-114.49442
-104.50982
-138.74937
-116.67035
-137.64655
-115.05875
-104.22968
-94.705169
-51.772507
-109.41068
-63.826735
-94.999638
-51.166298
-108.8769
0
0
0
0
0
0
0
0
0
0
0
0
0
0
0
0
0
0
0
0
0
0
0
0
0
0
0
0
0
0
0
0
0
0
0
0
0
0
0
0
0
0
0
0
0
0
0
0
0
0
0
0
0
0
0
0
0
0
0
0
0
0
0
0
0
0
0
0
0
0
0
0
0
0
0
0
0
-152.09937
-135.88283
-138.38227
-144.82264
-165.42474
-144.57469
-155.07661
-119.641
0
-126.30465
-133.03605
-78.877672
-124.26
-86.868202
-108.32143
0
-119.92938
-128.79945
-84.48977
-117.9094
-88.171906
-132.85602
-87.500433
-121.18484
-90.958616
-121.00379
-133.27195
-90.843234
-158.25433
-149.73406
-150.07451
-162.41694
-154.00339
-162.97282
-157.93803
-147.12259
-165.44962
-144.79217
-151.07015
-146.34919
-154.52501
-146.01276
-136.92508
-80.50381
-89.054526
-126.31514
-127.55352
-137.02854
-89.235717
-102.81774
-112.19771
-76.398441
-60.561118
-105.5322
-111.73492
-59.700881
-142.91099
-169.80773
-196.89779
-144.21594
-153.63176
-185.16756
-130.66587
-137.2619
-169.871
-176.71861
-146.13596
-174.50205
-132.43422
-145.90213
-88.111026
-65.315716
0
0
-79.56209
-45.265786
-75.789727
-143.15281
-146.97989
-184.76377
-177.83478
-146.92156
-180.64551
-146.45009
-98.414278
-75.365117
-109.30562
-56.505767
-94.624521
-110.354
-58.020745
-97.553962
-53.84173
-95.144142
0
-105.34786
-49.665337
-85.898973
0
0
0
0
0
0
0
0
0
0
0
0
0
0
0
0
0
0
0
0
0
0
0
0
0
0
0
0
-133.94714
-121.38686
-88.001699
-91.055162
-133.66213
-121.213
-91.002056
-157.32409
-143.52525
-146.36636
-162.07183
-143.99909
-161.95567
-157.65968
-147.44921
-156.53695
-159.03963
-144.1388
-151.09086
-150.43194
-143.05363
-138.42262
-123.99021
-89.435169
-77.407094
-139.70415
-124.0637
-89.022002
-144.77849
-143.178
-147.52894
-156.77964
-146.10348
-144.89433
-142.37132
-134.18236
-86.937363
-120.46828
-90.680552
-134.6348
-120.71184
-90.76395
-137.31874
-88.857887
-125.18334
-77.722235
-124.17959
-137.10813
-88.724971
0
0
0
0
0
0
0
0
0
0
0
0
0
0
0
0
0
0
0
0
0
0
0
0
0
0
0
0
0
0
0
0
0
0
0
0
0
0
0
0
0
0
0
0
0
0
0
0
0
0
0
0
0
0
0
0
0
0
0
0
0
0
0
0
0
0
0
0
0
0
0
0
0
0
0
0
0
0
0
0
0
0
0
0
0
0
0
0
0
0
0
0
0
0
0
0
0
0
0
0
0
0
0
0
0
0
0
0
0
0
0
0
0
0
0
0
0
0
0
0
0
0
0
0
0
0
0
0
0
0
0
0
0
0
0
0
0
0
0
0
0
0
0
0
0
0
0
-62.129816
-131.28641
-104.6231
-111.19093
-70.13471
-98.129139
-99.060403
0
0
0
0
-68.514425
0
0
0
0
0
0
-56.038814
0
0
0
0
-76.995892
0
0
-73.019961
0
0
0
-72.360782
0
0
-64.436152
0
0
0
0
0
0
0
0
0
0
0
0
0
0
0
0
0
0
0
0
0
0
0
0
0
0
0
0
0
0
0
0
0
0
0
0
0
0
0
0
0
0
0
0
0
0
0
0
0
0
0
0
0
0
0
0
0
0
0
0
0
0
0
0
0
0
0
0
0
0
0
0
0
0
0
0
0
0
0
0
0
0
0
0
0
0
0
0
0
0
0
0
0
0
0
0
0
0
0
0
0
0
0
0
0
0
0
0
0
0
0
0
0
0
0
0
0
0
0
0
0
0
0
0
0
0
0
0
0
0
0
0
0
0
0
0
0
0
0
0
0
0
0
0
0
0
0
0
0
0
0
0
0
0
0
0
0
0
0
0
0
0
0
0
0
0
0
0
0
0
0
0
0
0
0
0
0
0
0
0
0
0
0
0
0
0
0
0
0
0
0
0
0
0
0
0
0
0
0
0
0
0
0
0
0
0
0
0
0
0
0
0
0
0
0
0
0
0
0
0
0
0
0
0
0
0
0
0
0
0
0
0
0
0
0
0
0
0
0
0
0
0
0
0
0
0
0
0
0
0
0
0
0
0
0
0
0
0
0
0
0
0
0
0
0
0
0
0
0
0
0
0
0
0
0
0
0
0
0
0
0
0
0
0
0
0
0
0
0
0
0
0
0
0
0
0
0
0
0
0
0
0
0
0
0
0
0
0
0
0
0
0
0
0
0
0
0
0
0
0
0
0
0
0
0
0
0
0
0
0
0
0
0
0
0
0
0
0
0
0
0
0
0
0
0
0
0
0
0
0
0
0
0
0
0
0
0
0
0
0
0
0
0
0
0
0
0
0
0
0
0
0
0
0
0
0
0
0
0
0
0
0
0
0
0
0
0
0
0
0
0
0
0
0
0
0
0
0
0
0
0
0
0
0
0
0
0
0
0
0
0
0
0
0
0
0
0
0
0
0
0
0
0
0
0
0
0
0
0
0
0
0
0
0
0
0
0
0
0
0
0
0
0
0
0
0
0
0
0
0
0
0
0
0
0
0
0
0
0
0
0
0
0
0
0
0
0
0
0
0
0
0
0
0
0
0
0
0
0
0
0
0
0
0
0
0
0
0
0
0
0
0
0
0
0
0
0
0
0
0
0
0
0
0
0
0
0
0
0
0
0
0
0
0
0
0
0
0
0
0
0
0
0
0
0
0
0
0
0
0
0
0
0
0
0
0
0
0
0
0
0
0
0
0
0
0
0
0
0
0
0
0
0
0
0
0
0
0
0
0
0
0
0
0
0
0
0
0
0
0
0
0
0
0
0
0
0
0
0
0
0
0
0
0
0
0
0
0
0
0
0
0
0
0
0
0
0
0
0
0
0
0
0
0
0
0
0
0
0
0
0
0
0
0
0
0
0
0
0
0
0
0
0
0
0
0
0
0
0
0
0
0
0
0
0
0
0
0
0
0
0
0
0
0
0
0
0
0
0
0
0
0
0
0
0
0
0
0
0
0
0
0
0
0
0
0
0
0
0
0
0
0
0
0
0
0
0
0
0
0
0
0
0
0
0
0
0
0
0
0
0
0
0
0
0
0
0
0
0
0
0
0
0
0
0
0
0
0
0
0
0
0
0
0
0
0
0
0
0
0
0
0
0
0
0
0
0
0
0
0
0
0
0
0
0
0
0
0
0
0
0
0
0
0
0
0
0
0
0
0
0
0
0
0
0
0
0
0
0
0
0
0
0
0
0
0
0
0
0
0
0
0
0
0
0
0
0
0
0
0
0
0
0
0
0
0
0
0
0
0
0
0
0
0
0
0
0
0
0
0
0
0
0
0
0
0
0
0
0
0
0
0
0
0
0
0
0
0
0
0
0
)


6090
(
0
0
0
0
0
0
0
0
0
-85.765192
0
-64.847572
0
0
0
-109.09914
0
0
0
-85.569629
0
0
0
0
-66.260265
0
0
0
0
0
0
0
0
0
0
0
0
-106.23257
0
0
-107.75829
0
0
-102.54903
0
-119.66878
0
-108.16327
0
0
0
-64.887264
0
0
0
0
0
-78.03257
0
0
0
0
0
0
0
0
-87.854459
0
0
0
0
0
0
0
0
0
0
-62.77904
0
0
0
0
0
0
0
0
0
0
0
0
0
0
0
0
0
-96.968515
0
0
0
0
0
0
-107.49624
0
0
0
0
0
0
0
0
0
0
0
0
0
0
0
0
0
0
0
0
0
0
0
0
0
0
0
0
0
0
0
0
0
0
0
0
0
0
0
0
0
0
0
0
0
0
0
0
0
0
0
0
0
0
0
0
0
0
0
0
0
0
0
0