/*--------------------------------*- C++ -*----------------------------------*\
  =========                 |
  \\      /  F ield         | OpenFOAM: The Open Source CFD Toolbox
   \\    /   O peration     | Website:  https://openfoam.org
    \\  /    A nd           | Version:  8
     \\/     M anipulation  |
\*---------------------------------------------------------------------------*/
/*   Windows 32 and 64 bit porting by blueCAPE: http://www.bluecape.com.pt   *\
|  Based on Windows porting (2.0.x v4) by Symscape: http://www.symscape.com   |
\*---------------------------------------------------------------------------*/
FoamFile
{
    version     2.0;
    format      ascii;
    class       scalarListList;
    location    "constant/vegetation";
    object      F;
}
// * * * * * * * * * * * * * * * * * * * * * * * * * * * * * * * * * * * * * //


303
(

834
(
0.0016876765
0.0027399748
0.00062081584
0.0029484036
0.0010025084
0.0029937922
0.073590539
0.023280694
0.060554008
0.0076758669
0.011200242
0.0065144897
0.0024288934
2.4369392e-06
2.075747e-05
2.2613643e-06
0.00011294215
1.1641105e-06
3.8760864e-05
2.322422e-05
0.00014210306
3.7261005e-05
1.9934237e-05
1.8553921e-05
1.8004047e-06
1.3009942e-05
1.0143895e-05
1.6691809e-06
1.3956169e-05
4.4892879e-05
9.2994117e-05
2.8454911e-05
1.286537e-05
1.5560565e-05
1.4895368e-05
2.5144278e-05
4.2959874e-05
5.0342947e-05
4.8958403e-05
3.1670353e-05
3.0022041e-05
4.0761515e-05
0.00015673193
0.00011782596
0.00013880108
3.2038466e-05
4.9535414e-05
4.3290571e-05
3.3202054e-05
6.2996892e-05
4.4096313e-05
4.2397446e-05
4.6051825e-05
4.0966014e-05
9.3670892e-05
7.9643208e-05
6.736701e-05
4.7189576e-05
5.4083836e-05
4.6844835e-05
7.3364736e-06
2.6220057e-06
7.8923709e-06
1.8192983e-05
2.1758146e-05
1.9071095e-05
6.8103586e-06
2.0962037e-06
6.315465e-06
5.1312542e-06
1.3082162e-06
4.5530193e-06
4.0144016e-05
4.025545e-05
4.156731e-05
1.5551344e-05
1.3444279e-05
1.6275098e-05
1.9423223e-06
5.4609041e-06
5.8593223e-06
7.4202345e-06
1.0557912e-05
7.6039361e-06
1.5302117e-06
5.1337665e-06
4.8586566e-06
4.1465563e-05
4.366579e-05
4.2685923e-05
2.5608951e-05
2.4309871e-05
2.6780686e-05
3.5663994e-05
3.8759093e-05
3.7144719e-05
2.7877984e-05
3.1337703e-05
2.9124428e-05
3.3922225e-05
3.341555e-05
3.5353498e-05
1.2715271e-05
2.1499448e-05
1.3675127e-05
2.460392e-05
2.4655049e-05
2.1544271e-05
1.4963162e-05
2.0883582e-05
1.8220107e-05
1.1803442e-05
1.7037144e-05
1.0936962e-05
1.5609931e-05
9.326085e-06
1.0043298e-05
1.1746484e-05
8.8257272e-06
8.342218e-06
4.4607966e-05
4.6588961e-05
4.5696527e-05
2.7495538e-05
3.4965102e-05
3.0253456e-05
3.7848729e-05
3.5340421e-05
3.2870741e-05
4.3498534e-05
4.789545e-05
4.1771221e-05
3.7651551e-05
4.5776232e-05
3.9802002e-05
0.00020728303
0.0006182144
3.8571849e-06
3.4741458e-06
9.5742628e-05
9.2936921e-05
6.4497551e-05
0.00020999195
4.5763707e-06
5.1225222e-05
4.0634072e-06
0.00016429574
8.270076e-05
0.00010088459
7.0210552e-05
3.0166858e-06
2.4703476e-05
3.1486754e-05
3.2234714e-06
2.63188e-05
2.6498745e-05
3.4404836e-05
7.604789e-05
7.2470908e-05
3.0151052e-05
4.75365e-06
3.7417445e-05
3.3064393e-05
4.6124635e-06
3.2116268e-05
8.8757349e-05
9.5422745e-05
0.00010316788
0.00013694749
0.00012190798
0.00010703111
0.00021455485
0.0001498142
0.00015671683
0.00011730931
9.9598914e-05
0.00010794793
7.4114881e-05
8.4307394e-05
0.00026543673
0.00030656589
8.6201491e-05
0.00011708578
0.00010685362
8.2056568e-05
8.2137925e-05
0.00010190471
0.00033848716
8.2351139e-05
8.4115793e-05
8.5250905e-05
8.4854646e-05
0.00010326746
9.165673e-05
9.2098067e-05
0.00010415727
9.2842666e-05
9.6483963e-05
0.00010840141
0.00012128685
0.00010983501
8.5473018e-05
4.4774658e-05
7.4443771e-05
3.8920908e-05
4.171874e-05
8.0155085e-05
1.1604071e-05
3.6463585e-06
1.0970691e-05
1.3195348e-05
4.8916297e-06
1.4352261e-05
4.5658381e-05
6.3961196e-05
5.6673249e-05
1.2223085e-05
4.261094e-06
1.2807853e-05
8.3675191e-05
0.00010295033
0.00010410369
2.815608e-06
9.0785165e-06
8.4742335e-06
3.4342436e-06
9.6999774e-06
1.0333355e-05
2.1709991e-05
3.2740591e-05
2.362124e-05
4.8622316e-06
1.4192794e-05
1.4429348e-05
4.9150004e-05
4.1795393e-05
4.9902034e-05
4.4459292e-06
1.3811088e-05
1.333935e-05
0.00010446625
0.0001068617
0.00010671924
9.4188974e-05
0.00010332486
0.00010159881
7.3418259e-05
7.2218388e-05
7.9176976e-05
8.9854445e-05
9.3875741e-05
9.7814382e-05
7.7627409e-05
8.9432257e-05
8.4458435e-05
1.1101075e-05
8.321286e-05
6.4878971e-05
1.8903155e-05
2.3014207e-05
1.572427e-05
1.4680431e-05
2.008446e-05
2.9743304e-05
1.8991469e-05
2.8088729e-05
1.6797549e-05
1.7891153e-05
3.3599097e-05
2.3930571e-05
2.4098888e-05
6.8339003e-05
6.5081875e-05
6.0412628e-05
4.2603022e-05
5.5547596e-05
5.154006e-05
2.1143887e-05
3.4354034e-05
2.2109904e-05
3.5020423e-05
2.3319234e-05
2.2728997e-05
0.00010885944
0.00010691817
0.00010937034
4.5510391e-05
0.00010814515
0.00011494045
0.00010564081
9.8148548e-05
0.00011138704
0.00010221965
7.562238e-05
8.9572426e-05
8.2259126e-05
9.5856052e-05
9.3475001e-05
8.8184725e-05
7.919864e-05
6.8445493e-05
0.00042643625
0.0028336856
0.00042826863
0.0010725755
0.0034703395
0.00046177542
0.0043844581
0.005788806
0.0048399705
0.0082300077
0.036156432
0.0061485844
0.027699048
0.0078412664
0.0086466768
0.0047122938
0.00028972037
0.00070524813
0.00030011579
0.00029260128
8.3162398e-05
0.0001074897
0.0012788744
0.00067556164
0.00041551743
0.025045352
0.036639967
0.011475193
0.025460493
0.0015111127
0.0023857703
0.0004154207
0.0017490414
0.000206717
0.0019570317
0.00048376093
0.00035163795
0.0024448339
0.0024424173
0.00054499331
0.0012869356
0.00069269493
0.00098431223
0.00094793166
0.0046624604
0.0016602141
0.0003350674
0.016364269
1.9010485e-05
1.1551308e-05
5.8224325e-06
3.129317e-05
2.2653925e-05
3.7249079e-05
1.9085261e-05
9.8996888e-06
1.6397707e-05
6.6246309e-06
9.6578453e-06
1.1167824e-05
8.5309689e-05
6.2156206e-05
5.6070092e-05
4.3033302e-05
4.3490275e-05
2.3572453e-05
4.485822e-05
4.1834088e-05
3.215372e-05
2.0315527e-05
4.5409011e-05
4.8096263e-05
4.041733e-05
4.6531081e-05
3.7398763e-05
3.4603873e-05
4.0119091e-05
0.00052766364
7.617506e-05
5.5822914e-05
2.5361829e-05
5.0294522e-05
3.4868252e-05
0.00051056318
0.00011489793
0.00010156434
0.00012522306
6.2895322e-05
2.7036927e-05
2.3573365e-05
5.0151069e-05
5.0973802e-05
8.0240381e-05
8.9514416e-05
5.3773669e-06
4.5499999e-06
0.00037812167
0.0003293694
0.00017049212
0.00028209152
9.8729006e-05
0.00023965219
0.00023816557
0.00010636652
8.918606e-05
0.00016120405
1.4080582e-06
2.4290443e-05
4.0922861e-05
3.5942956e-05
9.1131821e-06
6.0311188e-05
3.05134e-05
2.84088e-06
1.9646769e-05
0.00022421296
7.5253367e-05
3.9473374e-05
2.6660979e-05
2.4530239e-06
1.2076956e-05
1.743093e-05
8.6557685e-05
7.7616929e-05
5.7381043e-05
4.4334872e-05
5.3041078e-05
1.6023075e-05
6.3837058e-06
1.3568458e-05
3.8685121e-06
0.00031573285
8.4090814e-05
0.00026630183
0.00010136351
5.0462112e-05
7.5197088e-05
0.00014081359
8.2047004e-05
0.00010263756
8.9756716e-05
5.7545572e-05
4.1719451e-05
0.00033812492
6.9561e-05
3.5494865e-05
8.8672552e-05
5.3712847e-05
4.5809535e-05
4.4465935e-05
5.8247713e-05
2.3994508e-05
1.6905745e-06
6.1510059e-06
4.9037797e-05
1.525028e-05
2.1947098e-05
7.7597481e-05
4.3157273e-05
5.4569828e-05
2.6403452e-05
4.2537509e-05
7.6116146e-06
2.7105948e-05
5.055385e-05
4.4515384e-05
2.2384374e-05
2.6070776e-05
3.3059621e-06
8.5605414e-06
2.2485494e-05
1.4244067e-05
0.00024785464
4.829119e-05
5.5645212e-05
3.5751917e-05
4.8983068e-05
3.9431025e-05
3.3878203e-05
4.6757001e-05
2.1032035e-06
7.4927268e-06
8.8695764e-06
1.3338323e-05
1.2556182e-05
1.5542009e-05
7.6756838e-05
9.6529215e-05
6.9048162e-05
6.9731653e-05
6.2964301e-05
5.0824528e-05
6.1404953e-05
4.5455447e-05
4.654963e-05
4.9562564e-05
2.1473702e-05
2.665136e-05
4.1850838e-05
4.4084615e-05
3.8286969e-05
4.3048095e-05
2.9098596e-05
2.9498862e-05
1.8363235e-05
1.6895441e-05
4.2362689e-05
4.573164e-05
4.9054592e-05
5.1847255e-05
3.7297536e-05
3.8721475e-05
5.0739856e-05
4.4682318e-05
3.4165214e-05
4.0843248e-05
3.1700821e-05
3.678396e-05
4.4077703e-05
4.2546169e-05
0.00049673308
0.00038841837
6.8719435e-05
6.1946671e-05
1.48073e-05
4.5261918e-05
4.0460045e-05
0.00044294245
0.000366872
9.4095591e-05
0.00014999655
5.0964811e-05
5.1884334e-05
9.8588457e-05
6.7442407e-05
0.00013341229
6.1619472e-05
4.9272922e-05
5.8433483e-05
0.00014921273
3.0411699e-05
7.6100623e-05
2.6662764e-05
3.0547773e-05
1.9734091e-05
2.7690242e-05
4.9489012e-05
7.9425724e-05
5.1071174e-05
5.7787747e-05
4.0731676e-05
4.5420346e-05
9.4760337e-05
0.00017512147
0.00070791384
0.0011699222
0.00027253858
0.00090634365
0.00018696689
4.7399401e-05
8.4124231e-05
0.00016713709
0.00029671923
0.00026695418
3.9229636e-05
7.7502106e-05
6.4247117e-05
0.00010148831
0.00013671313
0.00016447335
9.4738515e-05
0.00014106141
0.00012827641
0.00023117549
0.00022903602
0.0001825831
0.00019650277
0.00044943853
0.00036320481
0.00056038112
0.00057557238
0.0006800704
0.00068302707
0.00043457223
0.00047864427
0.00046069079
0.00033541032
0.00052300506
0.00055757653
0.00053862457
0.00052632359
0.00012427767
0.00026600069
0.00020121746
0.00015936697
8.4344793e-05
0.00011326677
0.00019927923
0.00017087989
0.00035513143
0.0003287588
0.00025205003
0.00021167448
0.00050520636
0.00047396258
0.00040841341
0.00019060774
0.00025129837
0.00029162004
0.00025086739
0.00027349125
0.00034996688
5.3948548e-05
0.00035962495
6.6938653e-05
0.00039907498
0.00033343972
0.00037074913
1.9350661e-05
0.00064422839
0.00029929375
0.0004983728
0.00049712739
2.3464695e-05
0.00057483496
0.00081713214
0.00035471298
0.00032632681
0.00025686422
0.00036486883
0.00044006204
4.9069121e-05
0.00039220569
0.00030728417
0.00057516261
0.0010214237
0.00055140798
0.00026169337
1.0952364e-05
0.00012573099
7.2201162e-05
0.00043213173
0.0004649517
4.1269866e-05
0.00015155051
0.00026137484
0.00023674457
0.00011977795
0.0001805378
0.00013328001
0.00026106991
0.00026260544
0.00019764811
0.00024843575
0.0007039759
0.00031552051
0.00036558994
0.00080784334
6.5076106e-05
0.00018846788
0.00038478332
0.00048623991
0.00044737089
0.00042490879
0.00019118966
0.00021257523
0.00011778821
0.00036161554
0.0002900496
0.00028948573
1.5971258e-05
5.7377743e-05
0.00047280209
0.00014348379
8.3072225e-05
2.8432907e-05
6.9506057e-05
0.00046646428
0.00064663349
0.00036785753
0.00017241177
0.00077650507
0.00047267516
0.00056603794
0.00030664195
0.00048537187
0.00027024363
0.00019477368
0.00013353633
0.00033652913
0.00021436063
0.00027299372
5.7409534e-05
0.00014395731
0.00029838718
0.00039093911
0.00023135454
0.00035327154
0.00035609436
0.00084701678
0.00051229012
0.00044119266
0.00042496526
0.0003863478
0.00051387974
0.00050069464
0.00046409854
0.00058740023
0.00098316138
0.00057820601
0.00056582628
0.00039302486
1.3207725e-05
3.2554856e-05
9.3649688e-05
0.00010432761
5.3393887e-05
8.6691546e-05
3.4356834e-05
0.00012160615
0.00011321708
0.00018250964
0.00019637705
0.00021919309
0.00010756918
0.00010505487
0.00015451048
0.0001639035
0.00011624784
0.00014805026
0.00021705485
0.0002778365
0.00027346066
0.00022082775
0.00016844446
0.00021502262
0.00023221562
0.00020956417
0.00042811905
0.00042020052
0.00034329767
0.00039141571
0.00055725995
0.00057996919
0.00010890053
0.00056174474
0.00058406819
0.00020630275
0.00062524653
0.00083152212
0.00060870513
0.00086597001
0.00040800352
0.00040708015
0.00045739971
0.00050706987
0.00042812118
0.00048551029
0.00031653024
0.00030778634
0.0005212021
0.00046670883
0.00053976855
0.00053382235
0.00053881959
0.00047910098
0.00050795337
0.00047584446
0.00016870784
0.0003866613
0.00030841515
0.00049174531
0.00049100884
0.00013578824
0.00027599065
0.00023713784
0.00017922154
0.00014757276
0.00027619934
0.00041388107
0.00028460326
0.0004717306
0.00048045857
9.3249962e-05
0.00010289663
0.00019150858
0.00018175471
0.00010525949
0.0003814866
0.00033803284
0.00030223688
0.00031401367
0.00011939941
9.9496804e-05
0.00017690453
0.00052595631
0.0006265146
0.00042367263
0.00043621817
0.00020709072
0.0002514505
0.00054108687
0.00017456591
0.00020334233
0.000152959
0.00023447755
0.00030752497
0.00031622923
0.00023436973
0.00022740443
0.00025418702
0.00029502617
0.000320045
0.0003721004
0.00038051271
0.00054474911
0.00038461384
0.00039809442
0.00019927375
0.00026980629
0.0061230346
0.018136184
0.0027672509
0.0082835956
0.0084994581
0.097961535
0.11651279
0.0025660802
0.018415807
0.0082430807
0.0017328408
0.008174268
0.0039998842
)


778
(
0.053437741
0.044941185
2.4911254e-06
0.00013251301
2.8486636e-05
2.4134963e-06
0.00012346792
1.5942122e-06
0.00023960875
0.00022519101
0.00022354456
0.00015566844
2.0423575e-05
1.9809185e-05
2.1607188e-06
1.5606705e-05
1.3943797e-05
2.0748609e-06
1.7344902e-05
6.5616654e-05
5.8849158e-05
6.3957821e-05
5.9332776e-05
0.00023858842
0.00016748746
9.3273552e-05
3.5312924e-05
1.768064e-05
1.9352763e-05
6.9059312e-05
6.7267005e-05
0.00020937259
6.1355204e-05
5.2992947e-05
5.1508009e-05
6.2525311e-05
6.0948083e-05
3.9304445e-05
5.0593289e-05
0.00020101034
0.00020693987
0.00018501154
0.00013875978
0.00018345512
0.00016363974
6.150132e-05
5.3734597e-05
4.6075843e-05
4.2394703e-05
5.2315742e-05
5.9013285e-05
5.2422321e-05
4.8184252e-05
4.9917649e-05
5.7639e-05
6.2226529e-05
5.6087414e-05
5.3201998e-05
6.0574675e-05
5.4555889e-05
0.00011023075
8.6936288e-05
7.9341856e-05
0.00022208378
0.00019723234
7.0694439e-05
7.5652955e-05
7.7577294e-05
6.5344562e-05
7.3701121e-05
7.1048055e-05
6.2954546e-05
6.0302385e-05
6.8155376e-05
6.0522406e-05
6.7241303e-05
6.0114778e-05
7.5013346e-06
2.5623754e-06
7.7150852e-06
2.4981298e-05
2.8962168e-05
2.5395467e-05
7.2698864e-06
2.3311753e-06
7.0245641e-06
7.0531999e-06
1.7336855e-06
6.0566629e-06
2.136393e-05
1.791209e-05
2.1678857e-05
2.2461863e-06
6.5565046e-06
6.7773891e-06
1.0199532e-05
1.4067039e-05
1.0127767e-05
1.9663725e-06
6.387484e-06
6.2559261e-06
3.2343345e-05
3.5612452e-05
3.8707503e-05
1.3007177e-05
2.1031194e-05
1.3375672e-05
3.1689909e-05
3.0599794e-05
2.775512e-05
1.9286864e-05
2.5926828e-05
2.3479473e-05
1.2604412e-05
1.8974884e-05
1.2168266e-05
1.8044397e-05
1.1197465e-05
1.1617869e-05
1.5140643e-05
1.0984208e-05
1.0750299e-05
5.7292746e-05
5.7957153e-05
5.8671172e-05
3.5405682e-05
4.3394968e-05
3.8946685e-05
4.697578e-05
4.5468217e-05
4.2303896e-05
5.5883607e-05
5.9456028e-05
5.3684674e-05
4.8425517e-05
5.68227e-05
5.1173035e-05
0.00026427829
2.7957178e-06
1.6611097e-06
4.7333466e-05
5.0801149e-05
3.2252236e-05
2.2577282e-06
2.6263673e-05
2.7957246e-06
9.1818647e-05
5.6713057e-05
3.6229203e-05
2.6808299e-06
2.1991289e-05
2.2903245e-05
2.7258902e-06
2.2345023e-05
1.278959e-05
1.6689665e-05
3.9843157e-05
3.7493849e-05
1.5031305e-05
2.673181e-06
2.1251047e-05
2.2885461e-05
2.7230237e-06
1.9121053e-05
0.00014358544
0.00010275151
0.00010118577
0.00013904731
9.7930491e-05
9.6327165e-05
4.6541478e-05
4.3808859e-05
0.00017565588
0.00020668536
1.9497606e-05
2.3779424e-05
8.4166652e-06
2.7838881e-06
8.3810808e-06
6.5314156e-06
2.5117249e-06
7.3862312e-06
2.3230305e-05
3.3988729e-05
2.9883448e-05
8.4163861e-06
2.7836853e-06
8.3744207e-06
2.6259391e-06
8.0711104e-06
7.9061231e-06
2.7605212e-06
8.2066281e-06
8.3107909e-06
1.0780846e-05
1.6962215e-05
1.219195e-05
2.6094486e-06
7.9917459e-06
7.7567453e-06
2.4774012e-05
2.1754659e-05
2.6127563e-05
2.7595671e-06
8.1626993e-06
8.287832e-06
5.2200354e-05
3.8282151e-05
3.8701186e-05
4.28364e-05
4.9138334e-05
4.0925833e-05
4.9443503e-05
4.6176475e-05
5.3212569e-06
4.4795102e-05
3.2795468e-05
9.0880089e-06
2.1530038e-05
1.399112e-05
1.3706057e-05
1.4588604e-05
2.2820833e-05
1.4527346e-05
2.2637103e-05
1.42256e-05
1.4405518e-05
1.8179371e-05
1.3511498e-05
1.2990601e-05
3.7888821e-05
3.7621873e-05
3.324581e-05
2.3157501e-05
3.1908904e-05
2.8175373e-05
1.4582445e-05
2.2550513e-05
1.4482507e-05
2.1904172e-05
1.3817043e-05
1.4152372e-05
2.2226429e-05
4.2277608e-05
4.204586e-05
3.4991425e-05
0.00054848052
0.0010635104
0.0058891486
0.0037239624
0.0062552582
0.017570779
0.0032943801
0.013579282
0.026644708
0.00074687478
0.00031541595
0.00093428383
0.00013347994
0.0008225559
0.00023021658
0.00019109103
0.00066131322
0.00039426707
0.00014901254
0.0021140175
0.0012151613
0.013313265
0.026385834
0.0002504665
0.0018209106
0.00063883283
0.00025848872
0.00015892732
0.0015302839
0.00042226226
0.0013717793
0.00066000906
0.001084855
0.0015579521
0.00028645215
0.00040525889
0.038658732
0.00027172859
9.3052341e-05
2.3372064e-05
0.00042445144
0.00040120622
0.0006175867
0.00014952776
6.7806097e-05
0.00010973859
2.9955194e-05
3.8143323e-05
4.9643713e-05
0.00016346737
0.00012235457
0.00010996058
7.9180641e-05
8.1919615e-05
8.4432953e-05
9.8920678e-05
0.00010657808
0.00010295066
7.5025086e-05
9.5510859e-05
0.00012915583
0.00010801223
0.00013184504
0.00013016422
0.00010615466
0.00013294217
0.0022199536
0.00013801232
0.00010458001
4.5242787e-05
9.4121533e-05
6.3320302e-05
0.0028099071
0.00027698228
0.00024110635
0.0014422229
0.00041838618
0.00010709631
9.6858014e-05
0.00011467203
0.00011069711
0.00036752405
0.00038142663
6.3972746e-05
4.4505742e-05
0.0012550008
0.00092408169
0.00041436575
0.00089243661
0.00030931976
0.00065546914
0.0018781072
0.0010729594
0.00077964682
0.001023654
5.1181673e-06
7.672982e-05
9.0689543e-05
0.00037795966
0.00020876636
0.0010858562
0.00027004255
1.6952923e-05
0.0001104792
0.0012339884
0.00037023241
9.1341856e-05
8.1550154e-05
1.2760554e-05
4.2028798e-05
8.5914549e-05
0.00017947522
0.00016188626
0.00011730072
8.2819724e-05
0.00010662298
0.00018655252
9.3754096e-05
0.00013043073
3.1611939e-05
0.0020292018
0.00018657688
0.0010120509
0.00034182971
0.00017083526
0.00016727314
0.00036607686
0.0002257233
0.00029592864
0.00020845349
0.00012425097
0.00040821833
0.0032460342
0.0010981486
0.00029608852
0.00046462913
0.00031534256
0.00023778426
0.00020008248
0.0002599304
0.0001301706
6.9194948e-06
2.196432e-05
0.00021068392
5.2091743e-05
0.00010491126
0.00019577789
8.4054118e-05
0.00011552339
0.00029477858
0.00053575151
0.00013951968
0.00059438688
0.00076440524
0.00089841246
0.00020799803
0.00019622569
2.292132e-05
5.0516268e-05
0.00014552966
8.2396812e-05
0.0011367941
0.00017478734
0.00014817742
9.3914804e-05
0.00015613434
0.00015795654
9.2703465e-05
0.00015815971
9.6461486e-06
3.8524354e-05
3.1333886e-05
5.1717134e-05
6.3409707e-05
6.7639341e-05
0.00014948854
0.00019739592
0.0001356468
0.00014529028
0.00013028112
9.8799654e-05
0.00010937679
8.7264382e-05
8.928237e-05
9.753765e-05
6.9862567e-05
9.2245043e-05
8.8799891e-05
0.00010198965
9.2458111e-05
0.0001045137
8.5967245e-05
9.8340486e-05
6.1331408e-05
6.4068522e-05
8.6092548e-05
9.1832672e-05
0.00012482082
0.00014659159
9.3959702e-05
0.0001084748
0.0001523184
0.00013352759
0.00012454049
0.00015484798
9.0227343e-05
0.00010790923
0.00015801922
0.00013397622
0.001654789
0.0015816696
0.0001267776
0.00011553254
2.5808526e-05
8.4205511e-05
7.4513568e-05
0.0032423223
0.0018748175
0.00020650052
0.0003667152
0.00015112073
0.00016426708
0.00035982551
0.00014934058
0.00032523278
0.00013505547
0.00056826822
0.00079313619
0.0019416723
0.00021794588
0.00058009904
0.00016553896
0.00011623626
8.3672889e-05
0.0001276804
0.00011932744
0.00018947526
0.00010547784
0.00012929621
0.00016751714
0.00017555679
0.00037317641
0.00038962738
0.0013859321
0.0030601377
0.00078560954
0.0016093429
0.0063675943
0.002060831
0.00070094375
0.0055430281
0.0036454704
0.0002655185
0.0015318681
0.0015291507
0.00039738663
0.00041375509
0.00061060859
0.0012036554
0.0021820136
0.0017431697
0.0012004322
0.0021789809
0.0017391693
0.00017709894
0.00021639074
0.00021002311
0.0001569335
0.00017451748
0.00021670518
0.00021037264
0.00036956378
0.00027147103
0.00065700248
0.00058182213
0.0027538226
0.0037300647
0.00043309438
0.0004083081
0.00048435095
0.00024396919
0.00064529439
0.00053853485
0.00073246103
0.00066688286
0.00018027358
0.00041218944
0.00013407406
0.00018069068
0.00014887644
0.00017508243
0.000148296
0.00017563954
0.0003088187
0.00027518186
0.0036705068
0.0031442384
0.0008640251
0.00088185291
0.0035249395
0.00036712682
0.00053071247
0.00039597604
0.00035954622
0.00034636791
0.00061207007
3.3655461e-05
0.00020992984
5.9447177e-05
0.00026889447
0.00019292452
0.00024501751
0.00063282469
0.0063187448
0.0039569928
0.00030948347
0.00030679122
0.00063234836
0.00046462761
0.005905176
0.0039486057
0.00071350133
0.00049180551
0.00023135148
0.00026392093
0.00020785817
0.00034945299
0.0010876164
0.00045336739
0.0053506373
0.0018578498
0.00014767148
0.00030794283
0.0027238221
0.0015083637
0.00027308798
0.00028116802
0.00030685646
0.0027227698
0.0015107212
0.00013254446
0.00023164922
0.00027357299
0.00024674291
0.00016143859
0.00023271739
0.00027379594
0.00024854103
0.0019777034
0.00075563452
0.00079575815
0.0055176185
9.2403069e-05
0.00017049188
0.00043663473
0.00034949498
0.00062699309
0.0011712293
0.0004572132
0.0004938922
0.00024543829
0.00038680245
0.00018210668
0.00026706326
0.00055633676
0.0017348038
0.0050297665
0.0025281462
0.0014829953
0.00055517844
0.0017336901
0.00040741481
0.001569707
0.0011746318
0.0025286435
0.0035188946
0.0029853704
0.0022149555
0.001545555
0.0012549015
0.00058136959
0.00031766561
0.00026664881
0.00042316604
0.00031820445
0.00028671978
0.00013870335
0.00059104047
0.00026936105
0.00052785978
0.00089271768
0.00076325193
0.00048128726
0.0024431282
0.0010320355
0.00093218962
0.0010394549
0.0006721215
0.00037791705
0.0010197483
0.00070688027
0.0016995562
0.0037003741
0.0016938839
0.0014433041
0.00075681489
0.00043303492
0.00086644494
0.0024513842
0.0024493472
0.0012820744
0.0019971101
0.00043176223
0.00086325736
0.0024501834
0.0024479336
0.0012774301
0.0019976455
0.00021499362
0.00018981029
0.00021974319
0.00026863613
0.0002009864
0.00025940263
0.00013224525
0.00019256049
0.00021417954
0.00018902317
0.00021986369
0.0002694951
0.00026096492
0.00020106631
0.000294448
0.00033389391
0.00022278612
0.00030129334
0.00046250606
0.00064608863
6.0079829e-05
0.00043244273
0.00061918092
0.00011446329
0.0019686485
0.0029557759
0.0046394063
0.0041632257
0.0003870518
0.00049267897
0.00032146032
0.00044984597
0.00055582342
0.00054083319
0.00020194244
0.0002183199
0.00044423523
0.00060426264
0.00040612951
0.00049362746
0.00078834994
0.00087805007
0.00060216459
0.00079281715
0.00010667075
0.00022776218
0.00017691247
0.00030735443
0.00030116879
0.00018306777
0.00046542399
0.00041340588
0.00010760194
0.00018322114
0.00017525029
0.00024601955
0.00016189824
0.00029667196
0.00029276565
0.00015896185
0.00016783802
0.00015919089
0.00016836118
0.00022630162
0.00034584692
0.0003425623
0.00024431717
0.00030293268
0.0022967953
0.001911598
0.0025141255
0.0008296211
0.0017055677
0.00085346419
0.0012478327
0.0023004854
0.0019418612
0.0023463198
0.00030872506
0.00035951111
0.00028927039
0.00052396678
0.00045072454
0.00037228948
0.00031296976
0.0003645055
0.00030225321
0.0003271288
0.00050969728
0.00054374055
0.00060427093
0.0012338239
0.00092854843
0.00085654351
0.00038355234
0.00049686587
0.016314751
0.0018863558
0.030382194
0.0040392008
0.0038274835
0.0057280424
0.022136797
0.037720738
0.066377247
0.063054919
0.011809272
0.0033458281
0.0020941055
0.0020547336
0.00093310964
0.00080220956
0.0095850849
0.0046112109
)


821
(
0.0020826793
0.0043345525
0.00092220002
0.0041565951
0.09750465
0.031586634
0.072049798
0.012907309
0.016800036
1.7503895e-06
9.4886873e-05
1.7789955e-05
1.66081e-06
8.486166e-05
9.8703326e-07
3.4140647e-05
1.9947435e-05
0.00010756849
3.2695612e-05
1.4375808e-05
1.3666754e-05
1.4095362e-06
1.0207269e-05
8.639456e-06
1.3335656e-06
1.1174816e-05
6.654425e-05
2.2948437e-05
1.097047e-05
1.2483144e-05
0.00014437505
4.2508592e-05
4.2079515e-05
2.561246e-05
2.5991889e-05
3.3315033e-05
0.0001374219
0.00012539868
9.268814e-05
0.00012759313
0.00011004957
2.782322e-05
4.1204743e-05
3.5519906e-05
4.2836287e-05
3.8767683e-05
7.3217964e-05
5.9511809e-05
5.2444307e-05
4.429241e-05
4.157354e-05
4.7707789e-05
4.5689322e-05
5.2725847e-06
1.8412597e-06
5.5456582e-06
1.5561899e-05
1.829368e-05
1.6000466e-05
5.0043778e-06
1.5734564e-06
4.742932e-06
4.3625133e-06
1.0863571e-06
3.7911013e-06
3.487311e-05
1.3279833e-05
1.1240779e-05
1.3629252e-05
1.4893583e-06
4.2780081e-06
4.4952125e-06
6.3131615e-06
8.8153941e-06
6.3408991e-06
1.2469297e-06
4.1053371e-06
3.9653632e-06
2.2049034e-05
2.0487789e-05
2.2630038e-05
3.1181024e-05
3.3438245e-05
3.1918817e-05
2.4066403e-05
2.6641401e-05
2.4682085e-05
2.9555803e-05
2.8503749e-05
3.0265032e-05
9.1488382e-06
1.5150021e-05
9.6209038e-06
2.0277936e-05
1.9832962e-05
1.7715229e-05
1.2259902e-05
1.676692e-05
1.4952911e-05
8.6827064e-06
1.283263e-05
8.2219027e-06
1.1997363e-05
7.3118128e-06
7.7117758e-06
9.6104697e-06
7.0642342e-06
6.816866e-06
3.7987307e-05
3.9170793e-05
3.9096978e-05
2.2720399e-05
2.8370529e-05
2.5072045e-05
3.0813761e-05
2.9482174e-05
2.7327744e-05
3.6874566e-05
3.9644769e-05
3.5257424e-05
3.1525993e-05
3.7726338e-05
3.3457157e-05
0.00030845394
2.3657224e-06
1.8611824e-06
5.2754356e-05
5.6170623e-05
3.5947321e-05
2.4677764e-06
2.8524615e-05
2.440489e-06
0.00010122278
5.092502e-05
6.1302053e-05
3.9397401e-05
2.0236925e-06
1.663886e-05
1.9413712e-05
2.1134817e-06
1.7345291e-05
1.4299901e-05
1.8652459e-05
4.4225876e-05
4.166513e-05
1.6382479e-05
2.6566131e-06
2.107345e-05
1.9984595e-05
2.6188169e-06
1.8366838e-05
5.6572392e-05
6.1978317e-05
6.8674748e-05
7.3256427e-05
0.00012614555
9.0179977e-05
9.1013116e-05
7.427033e-05
6.3815356e-05
7.0953495e-05
4.9275337e-05
5.6410675e-05
0.00015843996
5.0441908e-05
7.3269707e-05
6.4550218e-05
4.7677897e-05
4.7520909e-05
6.0929794e-05
5.7263707e-05
5.7502959e-05
5.5810458e-05
6.7520139e-05
6.0666051e-05
6.2033952e-05
6.8669169e-05
6.1950702e-05
6.0595299e-05
7.0548678e-05
7.8697737e-05
7.0548413e-05
5.5247138e-05
2.9649524e-05
4.2925031e-05
2.1244127e-05
2.35913e-05
5.2512218e-05
7.1234302e-06
2.2855648e-06
6.8822941e-06
7.1270683e-06
2.6633514e-06
7.825468e-06
2.5243065e-05
3.5929454e-05
3.1600856e-05
7.3480646e-06
2.5085616e-06
7.5475611e-06
5.2185467e-05
6.3835209e-05
6.5403681e-05
1.9326059e-06
6.0944232e-06
5.8204278e-06
2.2011686e-06
6.3645703e-06
6.6283878e-06
1.1755048e-05
1.7956147e-05
1.291037e-05
2.6794163e-06
7.940994e-06
7.9616127e-06
2.6983704e-05
2.3024806e-05
2.7643505e-05
2.5686095e-06
7.8501017e-06
7.7147198e-06
6.5990586e-05
6.8951334e-05
6.7942606e-05
5.6477539e-05
6.3241586e-05
6.1402165e-05
4.1596544e-05
4.0903103e-05
4.5256311e-05
5.3209931e-05
5.5389871e-05
5.8395869e-05
4.443072e-05
5.2179999e-05
4.8758207e-05
5.9555042e-06
4.9602715e-05
3.6520832e-05
1.0165525e-05
1.5869132e-05
1.0570777e-05
1.0096571e-05
1.2351664e-05
1.875083e-05
1.1934519e-05
1.8087107e-05
1.1038424e-05
1.1494958e-05
1.8646699e-05
1.3421019e-05
1.3328534e-05
3.8829946e-05
3.725099e-05
3.4076803e-05
2.3748419e-05
3.1601924e-05
2.8886888e-05
1.2735248e-05
2.0345402e-05
1.3055382e-05
2.0376051e-05
1.3284893e-05
1.3173638e-05
6.8132444e-05
6.8499163e-05
6.9336972e-05
2.4823824e-05
6.6838619e-05
7.1040639e-05
6.4488608e-05
5.8523299e-05
6.8075581e-05
6.1657165e-05
4.3320512e-05
5.2517969e-05
4.7547336e-05
5.6715949e-05
5.5127687e-05
5.1470139e-05
4.6615838e-05
3.8926074e-05
0.00016954971
0.0011054232
0.00013666668
0.0004527712
0.0013495793
0.00014224446
0.0042366147
0.0036073486
0.0054590295
0.020479051
0.0039588165
0.017034058
0.0016404189
0.004998904
0.005297948
0.0085320576
0.01417145
0.00053043022
5.5403378e-05
0.00029284071
0.00013533713
8.2518406e-05
0.00046837789
0.00023030369
0.022956778
0.0075776399
0.017432683
0.0011641021
0.0015201705
0.0014230938
0.00098795916
0.00021982101
0.0013193594
0.0012175802
0.0005895314
0.0014306702
0.00046458346
0.0022997745
0.00096394725
0.00058873161
0.020141231
2.1945824e-05
1.1008781e-05
4.498277e-06
3.5889166e-05
2.8365315e-05
4.6269744e-05
1.8118825e-05
8.9705773e-06
1.4808987e-05
5.2992756e-06
7.4377749e-06
8.9056556e-06
6.5590993e-05
4.5262839e-05
4.0130603e-05
2.8830588e-05
2.9616873e-05
1.7869305e-05
3.1170394e-05
2.9890559e-05
2.3928202e-05
1.5475971e-05
3.1255967e-05
3.5190195e-05
2.9135115e-05
3.438947e-05
2.8665428e-05
2.5563972e-05
3.0493501e-05
0.00052687593
5.7600606e-05
4.0143516e-05
1.6904824e-05
3.5590042e-05
2.3571327e-05
0.00054225948
8.7896983e-05
7.6069618e-05
0.00014795221
5.8335271e-05
2.1164446e-05
1.8563199e-05
3.554925e-05
3.5757539e-05
6.8571155e-05
7.5560017e-05
5.7939563e-06
4.5987817e-06
0.00033164852
0.00027725517
0.00014021795
0.00023273102
7.861426e-05
0.00019101111
0.00024725242
0.00011719843
9.2096485e-05
0.00015099017
1.0563967e-06
1.7784328e-05
2.8130414e-05
3.8107508e-05
1.2576472e-05
8.0851011e-05
3.042625e-05
2.4645811e-06
1.688882e-05
0.00020574227
6.4962391e-05
2.7358674e-05
1.9416692e-05
2.0428443e-06
8.981539e-06
1.4385365e-05
6.6468996e-05
5.8438036e-05
4.0849814e-05
2.9462642e-05
3.7096343e-05
1.7217009e-05
7.3938765e-06
1.3682313e-05
3.6941549e-06
0.00031693812
6.5755914e-05
0.00022877149
8.1918305e-05
3.9830624e-05
5.7551339e-05
0.000107151
6.2291819e-05
8.0219019e-05
6.5802111e-05
4.1471435e-05
4.3795749e-05
0.00039965243
9.1631598e-05
3.5100625e-05
7.6851302e-05
4.7648972e-05
3.8959438e-05
3.6309467e-05
4.8321557e-05
2.0513186e-05
1.3124931e-06
4.5939055e-06
3.9744599e-05
1.1307629e-05
1.8026732e-05
5.7088371e-05
2.8921792e-05
3.8596059e-05
2.8217188e-05
4.8319879e-05
9.5692269e-06
3.7221356e-05
6.2070477e-05
6.053183e-05
2.2469783e-05
2.4611163e-05
3.0011251e-06
7.4128027e-06
2.020847e-05
1.2296744e-05
0.00022078173
3.8585041e-05
4.1270306e-05
2.5361565e-05
3.7590333e-05
3.149001e-05
2.4206603e-05
3.6268904e-05
1.6878283e-06
6.2256909e-06
6.61266e-06
1.02403e-05
1.0401808e-05
1.2350907e-05
5.7938432e-05
7.5634954e-05
5.1182421e-05
5.1501658e-05
4.5644173e-05
3.5768383e-05
4.0404629e-05
3.0712823e-05
3.2223286e-05
3.4062105e-05
1.5797721e-05
2.0091465e-05
2.8526783e-05
3.0923302e-05
2.6748703e-05
3.0478934e-05
2.1068624e-05
2.2101369e-05
1.3566866e-05
1.2925013e-05
2.8631666e-05
3.1183544e-05
3.5520481e-05
3.8901031e-05
2.6259743e-05
2.8152203e-05
3.8507727e-05
3.3346577e-05
2.6388829e-05
3.2314214e-05
2.2806511e-05
2.6963593e-05
3.454164e-05
3.2051162e-05
0.00046738692
0.00035685199
5.1089936e-05
4.5288074e-05
9.7295902e-06