/*--------------------------------*- C++ -*----------------------------------*\
  =========                 |
  \\      /  F ield         | OpenFOAM: The Open Source CFD Toolbox
   \\    /   O peration     | Website:  https://openfoam.org
    \\  /    A nd           | Version:  8
     \\/     M anipulation  |
\*---------------------------------------------------------------------------*/
/*   Windows 32 and 64 bit porting by blueCAPE: http://www.bluecape.com.pt   *\
|  Based on Windows porting (2.0.x v4) by Symscape: http://www.symscape.com   |
\*---------------------------------------------------------------------------*/
FoamFile
{
    version     2.0;
    format      ascii;
    class       scalarListList;
    location    "constant/vegetation";
    object      solarLoadFineFaces;
}
// * * * * * * * * * * * * * * * * * * * * * * * * * * * * * * * * * * * * * //


5
(

517
(
717.08284
717.08284
717.08284
717.08284
717.08284
717.08284
717.08284
717.08284
717.08284
717.08284
717.08284
717.08284
717.08284
717.08284
717.08284
717.08284
717.08284
717.08284
717.08284
717.08284
717.08284
0
0
0
0
717.08284
0
0
0
0
0
717.08284
717.08284
42.967322
717.08284
80.981001
717.08284
717.08284
717.08284
717.08284
80.981001
80.981001
717.08284
717.08284
717.08284
717.08284
717.08284
717.08284
717.08284
717.08284
717.08284
717.08284
717.08284
717.08284
717.08284
717.08284
717.08284
717.08284
717.08284
717.08284
717.08284
717.08284
717.08284
717.08284
717.08284
717.08284
717.08284
717.08284
717.08284
717.08284
717.08284
717.08284
717.08284
717.08284
717.08284
717.08284
717.08284
717.08284
717.08284
717.08284
717.08284
717.08284
42.967322
42.967322
42.967322
0
0
0
0
0
0
0
0
0
0
0
0
0
0
0
0
0
0
0
0
0
0
0
0
0
0
0
0
0
0
0
0
0
0
0
0
0
0
0
0
0
0
0
0
0
0
0
0
0
0
0
0
0
0
0
0
0
0
0
0
0
0
0
0
0
0
0
0
0
0
0
0
0
0
0
0
0
0
0
0
0
0
0
0
0
0
0
0
0
0
0
0
0
0
0
0
0
0
0
0
0
0
0
0
0
0
0
0
0
0
0
0
0
0
0
0
0
0
0
0
0
0
0
0
0
0
0
0
0
0
0
0
0
0
0
0
0
0
0
0
0
0
0
0
0
0
0
0
0
0
0
0
0
0
0
0
0
0
0
0
0
0
0
0
0
0
0
0
0
0
0
0
0
0
0
0
0
0
0
0
0
0
0
0
0
0
0
0
0
0
0
0
0
0
0
0
0
0
0
0
0
0
0
0
0
0
0
0
0
0
0
0
0
0
0
0
0
0
0
0
0
0
0
0
0
0
0
0
0
0
0
0
0
0
0
0
0
0
0
0
0
0
0
0
0
0
0
0
0
0
0
0
0
0
0
0
0
0
0
0
0
0
0
0
0
0
0
0
0
0
0
0
0
0
0
0
0
0
0
0
0
0
0
0
0
0
0
0
0
0
0
0
0
0
0
0
0
0
0
172.02799
0
0
103.05915
0
280.49792
243.065
19.150763
38.930307
128.32493
0
0
15.765472
34.808865
0
0
97.590333
0
0
0
189.1427
185.36979
0
0
0
0
95.958275
43.108645
0
0
320.50087
295.40436
29.23895
10.321157
34.170678
99.458972
92.863712
132.84914
0
246.97942
246.27871
276.67343
193.87587
106.75365
221.30048
130.94228
261.30928
0
0
0
0
0
54.547099
0
0
0
0
0
0
0
0
0
0
0
0
0
0
0
0
298.53751
366.70653
391.37763
388.34236
232.65456
164.88054
248.87548
172.87554
0
52.894781
0
155.20486
159.24895
24.95959
0
0
0
0
125.4354
0
0
0
0
0
0
0
0
42.7899
0
0
352.65475
13.412582
124.71223
160.11567
1.0814756
0
3.4633097
288.989
0
0
164.67984
172.96299
20.894413
275.25169
0
0
0
0
0
26.392038
0
0
0
0
0
0
0
0
0
313.90308
388.5401
76.940707
219.85962
122.51701
)


517
(
585.76158
585.76158
0
585.76158
0
585.76158
585.76158
585.76158
0
585.76158
585.76158
585.76158
0
0
0
0
0
0
585.76158
585.76158
585.76158
0
0
0
0
0
0
0
0
0
0
585.76158
585.76158
50.160284
585.76158
378.62886
585.76158
585.76158
585.76158
585.76158
585.76158
585.76158
585.76158
585.76158
585.76158
585.76158
0
0
0
585.76158
0
585.76158
0
0
431.94689
585.76158
585.76158
585.76158
585.76158
585.76158
585.76158
585.76158
0
585.76158
0
0
0
0
0
0
0
0
0
0
0
0
0
0
0
585.76158
585.76158
585.76158
50.160284
50.160284
50.160284
0
0
0
0
0
0
0
0
0
0
0
0
0
0
0
0
0
0
0
0
0
0
0
0
0
0
0
0
0
0
0
0
0
0
0
0
0
0
0
0
0
0
0
0
0
0
0
0
0
0
0
0
0
0
0
0
0
0
0
0
0
0
0
0
0
0
0
0
0
0
0
0
0
0
0
0
0
0
0
0
0
0
0
0
0
0
0
0
0
0
0
0
0
0
0
0
0
0
0
0
0
0
0
0
0
0
0
0
0
0
0
0
0
0
0
0
0
0
0
0
0
0
0
0
0
0
0
0
0
0
0
0
0
0
0
0
0
0
0
0
0
0
0
0
0
0
0
0
0
0
0
0
0
0
0
0
0
0
0
0
0
0
0
0
0
0
0
0
0
0
0
0
0
0
0
0
0
0
0
0
0
0
0
0
0
0
0
0
0
0
0
0
0
0
0
0
0
0
0
0
0
0
0
0
0
0
0
0
0
0
0
0
0
0
0
0
0
0
0
0
0
0
0
0
0
0
0
0
0
0
0
0
0
0
0
0
0
0
0
0
0
0
0
0
0
0
0
0
0
0
0
0
0
0
0
0
0
0
0
0
0
0
0
0
0
0
0
0
0
0
0
0
0
0
0
0
0
0
0
0
0
0
0
0
0
0
0
0
0
0
0
0
0
0
0
0
0
0
33.749744
301.18417
0
0
244.06381
28.45039
384.34103
351.31035
177.37958
193.71577
266.56772
10.584592
0
134.43779
102.56937
0
0
241.78115
81.12254
30.518893
47.154637
310.94383
307.85527
0
0
0
14.121021
238.57877
183.51459
54.942369
0
412.34509
395.43393
82.895023
83.783961
184.04169
218.92152
213.76069
223.97898
0
339.33045
338.85211
341.48931
314.92169
225.79529
319.62502
222.59411
329.3251
0
0
116.64953
63.533006
116.0128
64.633271
0
54.902278
0
0
0
0
0
0
0
0
0
0
0
0
0
0
397.7533
432.40267
431.79629
429.59729
343.86684
278.55027
357.36412
278.35523
134.21958
199.60879
53.601799
202.78469
176.76553
176.58717
0
0
0
0
262.28998
14.703727
0
0
0
53.736124
0
0
45.288473
183.30971
117.90959
0
435.78019
122.32331
216.87991
206.54097
82.874851
29.320808
73.569178
312.29093
9.4235537
0
210.68873
188.99867
67.416039
340.31254
0
0
60.233965
1.4889246
0.36383452
170.24694
103.52386
0.56728063
0
0
0
0
0
0
0
407.24824
448.99439
187.84079
314.93936
214.2758
)


517
(
536.2201
536.2201
0
536.2201
0
536.2201
536.2201
0
0
536.2201
536.2201
536.2201
0
0
0
0
0
0
0
536.2201
0
0
0
0
0
0
0
0
0
0
0
536.2201
536.2201
0
0
0
536.2201
536.2201
0
0
0
0
0
536.2201
536.2201
536.2201
0
0
0
0
0
0
0
0
0
536.2201
536.2201
536.2201
536.2201
536.2201
536.2201
0
0
0
0
0
0
0
0
0
0
0
0
0
0
0
0
0
0
536.2201
0
0
0
536.2201
0
0
0
0
0
0
0
0
0
0
0
0
0
0
0
0
0
0
0
0
0
0
0
0
0
0
0
0
0
0
0
0
0
0
0
0
0
0
0
0
0
0
0
0
0
0
0
0
0
0
0
0
0
0
0
0
0
0
0
0
0
0
0
0
0
0
0
0
0
0
0
0
0
0
0
0
0
0
0
0
0
0
0
0
0
0
0
0
0
0
0
0
0
0
0
0
0
0
0
0
0
0
0
0
0
0
0
0
0
0
0
0
0
0
0
0
0
0
0
0
0
0
0
0
0
0
0
0
0
0
0
0
0
0
0
0
0
0
0
0
0
0
0
0
0
0
0
0
0
0
0
0
0
0
0
0
0
0
0
0
0
0
0
0
0
0
0
0
0
0
0
0
0
0
0
0
0
0
0
0
0
0
0
0
0
0
0
0
0
0
0
0
0
0
0
0
0
0
0
0
0
0
0
0
0
0
0
0
0
0
0
0
0
0
0
0
0
0
0
0
0
0
0
0
0
0
0
0
0
0
0
0
0
0
0
0
0
0
0
0
0
0
0
0
0
0
0
0
0
0
0
0
0
0
0
0
0
0
0
0
0
0
0
0
0
0
0
0
0
0
0
0
0
0
0
0
0
0
0
0
0
0
0
0
0
0
0
0
0
0
0
0
0
0
0
0
0
0
0
196.27322
447.96721
172.82419
177.19626
397.36642
190.98554
518.23865
488.00534
335.92325
350.94416
417.58208
14.327553
0
297.26298
267.0435
0
0
395.10399
232.94262
193.0175
198.7236
449.82478
446.95853
0
48.183276
0
145.06708
392.61129
332.73055
208.71134
31.760762
536.41255
527.21352
211.14022
173.08158
333.33182
341.87771
337.44837
320.31343
0
451.98985
451.66341
427.91829
453.66716
349.24647
435.41201
319.25009
417.19352
0
0
280.4275
222.94583
252.00957
223.99073
44.728145
177.20644
0
0
0
0
0
0
0
0
0
0
0
0
0
0
529.07754
532.3324
507.2589
505.54805
482.24053
414.73425
494.39031
408.13369
294.69405
347.82427
99.875935
256.08936
199.74324
326.67384
0
0
0
0
413.74821
56.238673
0
0
0
178.32651
98.121092
59.250831
42.799088
332.59473
253.70141
12.064834
554.67242
223.05546
313.31349
259.23281
152.92666
112.5485
141.20754
356.55319
10.431082
0
263.49025
212.05193
104.17694
426.8193
0
0
219.99911
142.32734
144.89847
321.00108
240.96711
144.62101
0.93803129
0
0
0
0
0
0
531.98043
546.27667
314.2208
439.37689
327.3573
)


517
(
411.8157
411.8157
0
0
0
411.8157
411.8157
0
0
411.8157
411.8157
411.8157
0
0
0
0
0
0
0
0
0
0
0
0
0
0
0
0
0
0
0
411.8157
411.8157
0
0
0
0
0
0
0
0
0
0
411.8157
411.8157
0
0
0
0
0
0
0
0
0
0
411.8157
411.8157
411.8157
411.8157
411.8157
411.8157
0
0
0
0
0
0
0
0
0
0
0
0
0
0
0
0
0
0
0
0
0
0
0
0
0
0
0
0
0
0
0
0
0
0
0
0
0
0
0
0
0
0
0
0
0
0
0
0
0
0
0
0
0
0
0
0
0
0
0
0
0
0
0
0
0
0
0
0
0
0
0
0
0
0
0
0
0
0
0
0
0
0
0
0
0
0
0
0
0
0
0
0
0
0
0
0
0
0
0
0
0
0
0
0
0
0
0
0
0
0
0
0
0
0
0
0
0
0
0
0
0
0
0
0
0
0
0
0
0
0
0
0
0
0
0
0
0
0
0
0
0
0
0
0
0
0
0
0
0
0
0
0
0
0
0
0
0
0
0
0
0
0
0
0
0
0
0
0
0
0
0
0
0
0
0
0
0
0
0
0
0
0
0
0
0
0
0
0
0
0
0
0
0
0
0
0
0
0
0
0
0
0
0
0
0
0
0
0
0
0
0
0
0
0
0
0
0
0
0
0
0
0
0
0
0
0
0
0
0
0
0
0
0
0
0
0
0
0
0
0
0
0
0
0
0
0
0
0
0
0
0
0
0
0
0
0
0
0
0
0
0
0
0
0
0
0
0
0
0
0
0
0
0
0
0
0
0
0
0
0
0
0
0
0
0
0
0
0
0
0
0
0
0
0
0
0
0
0
0
0
0
0
0
0
0
0
0
0
0
0
0
0
0
0
0
0
0
0
0
0
0
0
0
521.30192
0
0
486.58417
0
569.23785
548.53016
0
0
499.44315
0
0
0
0
0
0
0
0
0
0
513.01715
510.74552
0
0
0
0
483.13724
430.52057
0
0
573.18283
574.89932
0
0
0
0
0
0
0
486.7379
486.612
439.20304
0
0
348.19754
0
431.3857
0
0
0
0
351.5762
278.83328
0
0
0
0
0
0
0
0
0
0
0
0
0
0
0
0
576.0624
543.6437
497.00373
496.00217
545.09885
488.13294
553.76978
477.20651
0
0
0
258.67537
180.89207
0
0
0
0
0
400.56184
0
0
0
0
0
0
0
0
430.4621
352.82662
0
583.76942
0
0
0
0
0
0
336.03866
0
0
0
191.49253
0
438.33165
0
0
0
0
0
338.96337
343.50318
0
0
0
0
0
0
0
0
569.94314
553.15721
395.5834
498.58297
394.77452
)


517
(
0
284.42858
0
0
0
284.42858
0
0
0
284.42858
284.42858
0
0
0
0
0
0
0
0
0
0
0
0
0
0
0
0
0
0
0
0
284.42858
284.42858
0
0
0
0
0
0
0
0
0
0
284.42858
284.42858
0
0
0
0
0
0
0
0
0
0
284.42858
284.42858
284.42858
0
284.42858
284.42858
0
0
0
0
0
0
0
0
0
0
0
0
0
0
0
0
0
0
0
0
0
0
0
0
0
0
0
0
0
0
0
0
0
0
0
0
0
0
0
0
0
0
0
0
0
0
0
0
0
0
0
0
0
0
0
0
0
0
0
0
0
0
0
0
0
0
0
0
0
0
0
0
0
0
0
0
0
0
0
0
0
0
0
0
0
0
0
0
0
0
0
0
0
0
0
0
0
0
0
0
0
0
0
0
0
0
0
0
0
0
0
0
0
0
0
0
0
0
0
0
0
0
0
0
0
0
0
0
0
0
0
0
0
0
0
0
0
0
0
0
0
0
0
0
0
0
0
0
0
0
0
0
0
0
0
0
0
0
0
0
0
0
0
0
0
0
0
0
0
0
0
0
0
0
0
0
0
0
0
0
0
0
0
0
0
0
0
0
0
0
0
0
0
0
0
0
0
0
0
0
0
0
0
0
0
0
0
0
0
0
0
0
0
0
0
0
0
0
0
0
0
0
0
0
0
0
0
0
0
0
0
0
0
0
0
0
0
0
0
0
0
0
0
0
0
0
0
0
0
0
0
0
0
0
0
0
0
0
0
0
0
0
0
0
0
0
0
0
0
0
0
0
0
0
0
0
0
0
0
0
0
0
0
0
0
0
0
0
0
0
0
0
0
0
0
0
0
0
0
0
0
0
0
0
0
0
0
0
0
0
0
0
0
0
0
0
0
0
0
0
0
0
0
0
0
0
0
0
0
441.43095
0
0
0
0
0
0
0
0
0
0
0
0
0
0
0
0
0
0
0
0
0
0
0
0
587.171
0
0
0
0
0
0
0
0
0
0
0
0
0
0
0
0
0
0
0
0
0
0
0
0
0
0
0
0
0
0
0
0
0
0
0
0
0
587.67229
0
455.8046
455.46361
574.26849
407.94568
579.08207
518.57801
0
0
0
0
0
0
0
0
0
0
0
0
0
0
0
0
0
0
0
0
0
0
577.22614
0
0
0
0
0
0
0
0
0
0
0
0
0
0
0
0
0
0
0
0
0
0
0
0
0
0
0
0
571.77708
526.05822
453.4104
530.11529
441.13808
)

)


// ************************************************************************* //
