/*--------------------------------*- C++ -*----------------------------------*\
  =========                 |
  \\      /  F ield         | OpenFOAM: The Open Source CFD Toolbox
   \\    /   O peration     | Website:  https://openfoam.org
    \\  /    A nd           | Version:  8
     \\/     M anipulation  |
\*---------------------------------------------------------------------------*/
/*   Windows 32 and 64 bit porting by blueCAPE: http://www.bluecape.com.pt   *\
|  Based on Windows porting (2.0.x v4) by Symscape: http://www.symscape.com   |
\*---------------------------------------------------------------------------*/
FoamFile
{
    version     2.0;
    format      ascii;
    class       scalarListList;
    location    "constant/air";
    object      divqrsw;
}
// * * * * * * * * * * * * * * * * * * * * * * * * * * * * * * * * * * * * * //


5
(

5972
(
0
0
0
0
0
0
0
0
0
-161.13634
0
-131.06143
0
-135.91736
0
0
0
0
0
-103.97022
0
0
0
0
0
0
0
-179.40705
0
0
0
0
-147.79825
0
0
0
0
0
0
-113.22082
0
-46.289789
-161.78805
-118.80097
-56.676669
-156.94053
0
0
0
0
0
0
0
0
0
0
0
0
0
-158.6181
0
0
0
0
0
0
-122.06566
0
0
0
0
0
0
0
-126.13588
0
0
0
0
-127.79249
0
0
0
0
0
0
0
0
0
0
0
0
0
0
0
0
0
0
0
-79.919107
0
-151.1005
0
0
0
0
-162.89982
0
0
0
0
0
0
0
0
0
0
0
-83.192581
-26.773708
-41.999887
0
-200.95038
0
-167.91915
-142.55111
-114.38605
-187.98681
0
0
0
0
0
0
-92.906032
0
0
0
0
0
0
-145.3035
-84.699105
0
0
0
0
0
0
0
0
0
0
0
0
0
0
0
0
0
0
0
0
0
0
0
0
0
0
0
0
0
0
0
0
0
0
0
0
0
0
0
0
0
0
0
0
0
0
0
0
0
0
0
0
0
0
0
0
0
0
0
0
0
0
0
0
0
0
-154.78823
-51.870927
-78.304648
0
0
-158.04089
0
0
0
-92.924397
-128.73023
-153.55068
-165.6013
-109.00256
0
-40.588591
-66.836694
0
-144.15933
0
0
0
0
-79.073718
0
0
0
-173.20712
-121.59045
-59.750563
-78.908759
-154.14487
-175.94776
-154.78125
0
0
0
-92.570317
0
0
-132.86134
0
-42.277391
-66.213914
0
0
0
-151.97081
0
0
0
0
-160.21297
0
0
0
0
0
-108.2653
-140.03103
0
-177.39729
0
0
0
-129.3981
-169.05216
0
0
0
0
0
0
0
0
0
0
-94.046332
-67.7564
-69.601284
-46.442839
0
-20.377886
-20.127031
-31.207771
-60.728905
-24.578434
-37.629352
-195.00332
-127.83702
-132.59914
-149.38817
-75.455263
-81.802505
-123.80025
-105.30676
-105.35215
-70.959691
-110.03104
-191.52565
0
0
0
0
0
0
0
0
0
0
0
0
0
0
0
0
0
0
0
0
0
0
0
0
0
0
0
0
-105.75163
0
-179.01631
0
0
0
-147.21477
0
0
0
-161.132
0
0
-151.74998
0
0
-132.72168
-172.08802
0
0
0
0
0
-104.04775
0
0
0
0
0
0
0
0
0
-98.243045
-46.237547
0
0
0
0
0
0
0
0
0
0
0
0
0
0
0
0
0
0
0
0
0
0
0
0
0
0
0
0
0
0
0
0
0
0
0
0
0
0
-137.78255
-51.44216
-76.734985
0
-47.188039
-70.097854
0
0
0
0
0
0
0
0
0
0
0
0
0
0
0
0
0
0
0
0
0
0
0
0
0
0
0
0
0
0
0
0
0
0
0
0
0
0
0
0
0
0
0
0
0
0
0
0
0
0
0
0
0
0
0
0
0
0
0
0
0
0
0
0
0
0
0
0
0
0
0
0
0
0
0
0
0
0
0
0
0
0
0
0
0
0
0
0
0
0
0
0
0
0
0
0
0
0
-62.253904
0
0
-50.174679
0
-166.86847
-184.20648
-142.52297
-169.85734
-172.68719
-150.66704
-177.70038
-115.30924
-157.14722
-114.34814
-103.08247
-144.42021
-85.822666
-131.69621
0
0
0
0
0
0
0
0
-92.600575
-112.61933
-149.15163
-98.208482
-125.62966
-79.726857
-113.85206
0
-85.309203
-73.969732
-74.515703
0
0
0
-86.701032
0
0
0
0
0
0
0
0
0
0
-84.240801
-27.544229
-41.710549
-43.764043
-53.708574
-87.927925
-30.328589
-196.13051
-178.41427
-151.43398
-150.80035
-190.94023
-197.66939
-182.41088
0
0
0
0
0
0
0
0
0
0
0
0
0
0
0
0
0
0
0
0
0
0
0
0
0
-196.20484
0
-89.078259
-102.6285
-164.02707
-202.08228
0
0
0
0
0
0
-126.97518
0
0
0
0
0
0
0
0
-89.271326
-108.6652
-98.496172
-98.766998
-92.406876
-96.875415
-94.349341
0
-12.774104
-15.604682
-47.274443
-37.21835
-39.325713
-186.07646
-158.7237
-170.67811
-121.29625
-126.16753
-105.60529
-107.40993
-118.00864
-107.76029
-115.31183
-71.392358
-57.428089
-72.056053
-187.42432
-124.35689
-145.53804
0
0
0
0
0
0
0
-97.032251
0
0
0
0
-103.40597
0
-162.01433
0
-80.398278
-86.619556
-176.01769
-166.28295
0
0
0
0
0
0
0
0
0
0
0
0
0
0
0
0
0
0
0
0
0
0
0
0
0
0
0
0
0
0
0
0
0
0
0
0
0
0
0
0
0
0
0
0
0
0
0
-140.49633
0
0
0
0
0
0
0
0
0
-73.628386
-120.6677
-97.320969
-108.03635
-94.438103
-97.636592
-79.572004
-93.229892
-131.15123
-100.13469
-121.90646
-105.51931
-131.90831
-87.11174
0
0
0
0
0
0
0
0
0
0
0
0
0
0
0
0
0
0
0
0
0
0
0
0
0
0
0
-101.37825
-47.540381
-67.612774
-76.438579
0
0
0
-78.105706
0
0
-72.989418
0
0
0
-115.56043
-98.804019
0
-77.414366
-85.765806
0
0
-38.603046
0
-67.290876
0
0
0
0
0
0
0
0
0
0
0
-71.746133
0
0
0
0
0
0
-89.194862
0
0
0
0
0
0
0
0
0
0
0
0
0
0
0
0
0
0
-62.987384
-51.935115
-66.263403
-46.594748
0
0
0
0
0
0
0
-68.784729
-72.544547
-69.725277
-82.734861
-72.580647
-60.016848
-74.31
-47.61946
0
-31.856288
0
-40.557603
-35.760464
0
-55.101952
-47.026281
-55.425948
-36.331007
-47.621443
-60.737917
-41.423857
0
0
0
0
-82.788086
0
-79.439942
0
0
0
0
-170.23913
-154.59443
-175.98862
-158.94302
-178.60469
-199.33463
-182.43173
-197.72642
-192.43347
-182.00791
-185.53011
-116.03131
-95.091867
-119.92314
-151.61686
-117.97336
-150.86837
-127.22888
-164.84268
-170.15497
-165.82825
-157.76877
-156.04778
-171.11825
-162.40234
-168.91764
-148.67207
-161.33751
-154.655
-168.28226
-168.45169
-156.81546
-174.4003
-190.07141
-179.54705
-189.64107
-134.42662
-107.40661
-129.36471
-158.57941
-147.19231
-139.39389
-159.62455
0
0
0
0
-138.95592
-181.88811
-154.76457
-181.34796
-174.40268
-152.91293
-141.02402
0
0
0
0
-92.44278
-123.47827
0
0
0
0
0
0
-103.78984
0
-97.750643
0
-119.31134
0
-116.74625
-100.44132
0
-118.47387
-166.92843
-158.10818
-121.7317
0
0
0
0
0
0
0
0
0
0
0
0
0
-84.317212
-80.634084
-101.99426
0
0
0
0
0
0
0
0
0
0
0
0
0
0
0
0
0
0
0
-88.408113
0
-101.09796
0
0
-95.007978
-145.66401
-128.86951
-119.72391
-127.25986
-114.76127
-98.322578
-80.018239
-75.177128
-111.43857
0
-107.11905
0
-76.78814
0
0
0
0
0
0
0
0
0
0
0
0
-76.126531
0
-62.201623
-91.272788
0
0
-81.387774
-66.817697
0
0
0
0
0
0
0
0
0
0
0
0
0
0
0
0
0
0
0
0
0
0
0
0
0
0
0
0
0
-117.07433
-104.2305
-176.78899
-113.20968
-94.157786
-95.379661
-97.647421
-56.436274
-85.593372
-56.797238
-99.283847
-55.943225
-76.108367
-121.30067
-96.971265
-102.35993
-64.797676
-85.317759
0
0
0
0
0
0
-83.867595
0
0
0
0
-67.65523
0
-103.44296
-182.40011
-134.95498
0
-115.7878
-95.675855
-97.09684
0
0
0
0
0
0
0
0
0
0
0
0
0
0
0
0
0
0
0
0
0
-109.37245
0
-138.0482
-109.28961
-77.425889
-138.75144
0
-118.40389
0
-181.07064
-156.63633
-161.00846
0
0
-122.59805
0
-154.6916
-182.59165
-157.55965
0
0
-111.19868
0
-124.16705
-161.89297
-88.332218
-148.49662
0
-95.828743
-63.420675
-54.494553
-54.519622
-108.59127
-62.733061
-99.176641
-20.993379
-20.502739
-31.049412
-33.266758
-11.277868
-22.215275
-23.551576
-49.825944
-24.591949
-36.450765
-36.152042
-40.684741
-49.607703
-28.16758
-42.372888
-46.015995
-68.122334
-39.843193
-62.487552
-56.036465
-31.980066
-46.543688
0
-84.950747
0
-63.337551
-89.957366
-31.657228
-61.821281
-115.96628
-88.20804
-102.89875
-71.595719
-71.633832
-102.0678
-36.179382
-12.200624
-33.137914
0
-55.764563
-23.71063
-24.971379
0
0
0
0
0
0
0
0
0
0
0
0
0
0
0
0
0
0
0
0
0
0
0
0
-44.272354
0
0
0
0
0
0
0
0
0
0
0
0
0
0
0
0
0
0
0
-34.009726
0
0
0
0
-189.13353
-129.29835
-131.61417
-130.71432
-181.68011
-127.34594
-191.30244
-147.30547
-86.793371
-116.4028
-116.28601
-120.77835
-86.225094
-146.50259
-86.724601
-66.765093
-89.762048
-90.513932
-59.769673
-85.510925
-66.786056
-98.615836
-66.982252
-110.91275
-84.784487
-94.389842
-113.36207
-73.638609
-156.06012
-190.18523
-199.16853
-176.48558
-167.71273
-199.87767
-181.98981
-138.07718
-184.12639
-148.10524
-202.89603
-134.73783
-157.19774
-193.61094
-123.93718
-129.55716
-110.61119
-170.38362
-138.14878
-95.506283
-152.23843
0
0
0
0
0
0
0
0
0
0
0
0
0
0
0
0
0
0
0
0
0
0
0
-66.140569
-129.9928
-93.819961
0
0
0
0
0
0
0
0
0
0
0
0
0
0
0
0
0
0
-136.46186
0
0
0
0
-17.682518
-11.13845
0
-19.391623
0
-22.264731
-16.391174
-42.926558
-43.531362
-23.660622
-18.430959
-46.771944
-59.866407
-37.114123
-50.03722
-25.437214
0
0
0
0
0
0
0
0
0
0
0
0
-51.467156
0
0
0
0
-29.180985
0
-20.780095
0
0
0
0
-194.53734
0
0
0
0
0
0
0
0
0
0
0
0
0
0
0
0
0
0
0
0
0
0
0
0
-206.75389
0
0
0
0
0
0
0
0
0
0
0
0
0
0
0
0
0
0
0
0
0
-154.30846
0
0
0
0
0
0
0
-154.63877
0
0
0
0
0
0
0
0
0
0
-201.40731
0
-93.651323
-109.6922
-210.63419
-207.59153
-103.02108
0
0
0
0
0
0
0
0
0
0
0
0
0
0
0
0
0
0
0
0
0
-102.05673
-164.82484
-174.44237
0
-201.26185
0
0
-109.64358
-214.65266
0
-176.17424
-206.50416
-112.85154
0
0
0
0
0
0
0
0
-77.349393
-59.128329
-71.248014
-68.86632
-83.825013
-102.5775
-77.209014
-91.257942
-79.392755
-85.618177
-92.503488
-91.037694
-66.847122
-83.682997
-86.482339
-83.819351
-94.894196
-80.952963
-80.806367
-81.308511
-60.617578
-79.690509
-74.839073
-70.047369
-91.192902
-72.931258
-52.903683
-61.403344
-51.603148
-66.424076
-68.314069
-60.422769
-86.482763
-89.375969
-79.278878
-100.6335
-84.900786
-73.610603
-81.62399
-82.628197
-89.992545
-81.997618
-83.667159
-17.691035
0
-23.942303
0
-24.99534
-18.449101
0
-16.358612
-23.555909
-19.216963
-22.40251
-34.792743
-26.200577
-27.226382
-27.959171
-22.090716
-29.235872
-50.746196
-52.848422
-52.945576
-68.214146
-45.995161
-59.937038
-57.684738
-29.722816
-28.471624
-33.089209
-43.142987
-43.268305
-44.720882
-32.916749
-38.516074
-51.521707
-36.48641
-175.92467
-189.84746
-177.85327
-190.29489
-180.20003
-174.04724
-183.87519
-147.08721
-129.70502
-151.40064
-161.48842
-140.81586
-156.14065
-130.68426
-165.32595
-153.71282
-138.34898
-133.1043
-134.86586
-144.38538
-119.28671
-138.11801
-135.04633
-150.36981
-140.67257
-150.47806
-133.98161
-126.4037
-102.38951
-85.888124
-116.36747
-124.18925
-92.388012
-107.91992
-104.35236
-114.75991
-93.178448
-93.778523
-90.496313
-105.88677
-103.73334
-101.45741
-126.36704
-129.38013
-137.24104
-105.97457
-140.68477
-120.02851
-112.47841
-123.50378
-99.055525
-114.26144
-108.94491
-131.69689
-96.397301
-130.10209
-142.54944
-132.28903
-151.23223
-117.86442
-87.81404
-106.51333
-88.127367
-76.745405
-60.783398
-82.096236
-77.720632
-72.052985
-65.225381
-88.489011
-93.259309
-116.91204
-107.41829
-92.941633
-87.129034
-114.11388
-99.384822
0
0
-144.56627
-195.66795
-157.12333
-183.17252
-142.96414
-159.9335
-185.11117
-86.195116
-84.762826
0
-103.62321
0
-102.36743
0
-120.86267
0
-102.91716
-119.71658
0
-168.92239
-124.2656
0
0
0
0
0
0
0
0
0
0
0
0
0
0
0
0
0
0
0
0
0
0
0
-134.72498
0
0
0
0
0
0
-147.43395
0
0
0
0
0
0
0
0
0
0
0
0
0
0
0
0
0
0
0
0
0
0
0
0
0
-103.20418
-51.475525
0
0
-147.21929
-106.46417
-51.042602
0
0
0
0
0
0
0
0
0
0
0
0
0
0
0
0
-87.226548
0
0
-105.20345
0
0
-151.07838
-99.693402
0
0
-108.27736
-51.635968
0
0
0
0
0
0
0
0
0
0
0
0
0
0
-156.08393
-60.108824
-89.968996
-94.638969
-152.16496
-159.83018
-60.665552
0
0
0
0
0
0
0
0
0
0
0
0
0
0
-84.82696
-175.92406
-155.26323
0
-165.28038
0
0
-92.936204
-156.29877
-161.01601
0
-160.27608
0
-61.9813
0
0
0
0
0
0
0
0
0
0
0
0
0
0
0
0
0
0
0
0
0
0
0
0
0
0
0
0
0
-141.82989
0
0
0
0
0
0
0
0
0
0
0
0
0
0
0
0
0
0
0
-72.783857
-106.06984
-85.717458
-95.689978
-75.760092
-88.784464
-92.659755
-49.25587
-50.488334
-68.840718
0
-69.935487
0
-51.742076
0
0
-73.859554
0
0
-72.682001
0
0
0
0
0
0
0
0
-51.295952
-76.200769
0
0
-70.791686
0
-54.977402
0
0
0
0
0
-74.094848
0
0
0
0
0
0
0
0
0
0
0
0
0
0
0
0
0
0
0
0
0
0
0
0
0
0
0
0
0
0
0
0
0
0
0
0
0
0
-92.200124
-131.10003
-119.53864
-122.70442
-96.318456
-110.41748
-123.60839
-59.05684
-53.551494
-72.727598
0
-79.797312
-53.239452
0
-68.0256
-60.070463
-101.33645
0
-69.503151
-89.483868
0
0
0
0
0
0
0
0
-66.168501
-85.71206
-56.596164
0
-94.784192
-60.621123
0
-69.340945
-102.24705
0
-64.458317
-71.460217
-99.424363
0
0
0
0
0
0
0
0
0
0
0
0
0
0
0
0
0
0
0
0
0
0
0
0
0
0
0
0
0
0
0
0
0
0
0
0
0
0
0
0
0
0
0
0
0
0
0
0
0
0
0
0
0
0
0
0
0
0
0
0
0
0
0
0
0
0
0
0
0
0
0
0
0
0
0
0
0
0
0
-63.604829
-42.376473
-51.173035
-52.180061
0
-64.985985
-43.492099
-196.40641
-190.12918
-189.59231
-198.19142
-193.20745
-205.15238
-204.4745
0
0
0
0
0
0
0
-170.51165
-120.82525
-149.17904
-168.04553
-163.22706
-183.54112
-139.177
0
0
0
0
0
0
0
0
0
0
0
0
0
0
0
-76.724034
0
0
0
0
-78.374833
0
-173.79867
-116.07919
-135.54136
-151.30609
-176.33223
-191.77463
-130.27824
0
0
0
0
0
0
0
-90.127598
-89.618181
0
-73.703252
-138.55481
-106.13041
-103.49989
0
0
0
0
0
0
0
0
0
0
0
0
0
0
0
0
0
0
0
-81.845561
-93.296458
-80.24966
-68.471988
-93.815544
-69.835113
-80.245663
0
0
0
0
0
0
0
-134.99546
-158.61475
-140.06723
-134.373
-137.03593
-153.20769
-125.42525
0
0
0
0
0
0
0
0
0
0
0
0
0
0
0
-165.48187
-144.21964
-143.90346
-140.6681
-144.92507
-112.40969
0
0
0
0
0
0
0
0
0
0
0
0
0
0
0
0
0
0
0
0
0
0
0
0
0
0
0
0
0
-140.12262
-149.03846
-141.78888
-147.40902
-166.56261
-152.78274
-154.63777
-64.178521
-51.556528
-65.760319
-65.522823
-51.597591
-64.198069
-51.585558
-83.79503
-66.549382
-77.536195
-92.983599
-81.705523
-91.204197
-68.072103
0
0
0
0
0
0
0
-140.97439
-167.22602
-152.40806
-140.56923
-154.69177
-135.63743
-152.39183
-120.40622
-107.03267
-107.21541
-92.894446
-106.71257
-106.486
-121.56111
-138.30744
-97.407375
-150.89411
-149.37154
-167.20241
-122.29588
-112.1909
-157.36606
-125.07506
-156.27836
-174.4488
-171.70862
-139.70413
-148.17987
-170.50823
-176.84817
-152.82252
-164.02629
-168.41295
-158.88464
-169.42836
-12.424547
-13.151175
-16.01545
-16.431205
-9.9705402
-13.537347
-12.888339
-47.042681
-55.493108
-66.979651
-56.982156
-58.102717
-55.682157
-46.018124
-59.535933
0
0
0
-60.222079
-65.880829
0
-108.26515
-138.06431
-127.27036
-132.42976
-116.37568
-116.4358
-130.76815
-23.756173
0
-21.452479
0
-27.174652
-19.12203
-18.781127
-75.403212
-92.236845
-77.707021
-66.588803
-78.099385
-90.63233
-64.18106
0
0
0
0
0
0
0
-193.95983
-160.44473
-169.85663
-170.13297
-182.33869
-161.73395
-201.51501
-194.7967
-166.48819
-173.54011
-182.40753
-190.45033
-182.80977
-193.4525
-180.09394
-182.7226
-169.56892
-194.29741
-169.02303
-182.62156
-198.8789
-134.72276
-146.03227
-137.43392
-157.23232
-145.68044
-125.35517
-150.73927
-106.91849
-106.89701
-88.15459
-107.58935
-99.073222
-122.27767
-98.594309
-93.307826
-101.95257
-135.96797
-112.37199
0
-115.81486
-116.54099
0
-10.288859
0
-8.4616032
0
-10.633396
0
-40.518416
-33.651939
-31.224797
-31.49429
-42.449799
-40.598209
-33.874127
-42.651342
-54.876267
-65.093509
-55.373576
-53.807085
-44.553064
-53.264152
0
0
0
0
0
0
0
0
0
0
0
-14.663528
0
0
-130.24044
-125.97022
-105.71348
-130.15939
-173.2478
-154.42335
-149.34215
-133.20873
-179.06545
-130.91746
-145.77041
0
-164.08659
-150.3081
0
0
-132.06584
0
0
-104.41573
-113.36971
0
-104.41992
-112.20828
-151.24497
0
-118.95565
-119.97471
-205.10573
-144.79545
-163.01961
-181.3632
-196.37239
-218.76244
-164.97977
-150.94805
-142.3351
-152.56512
-105.97995
-163.97826
-134.69745
-120.3669
-162.22946
-185.2209
-138.12918
-177.03074
-191.2722
-156.24766
-144.6273
0
0
-123.75392
0
0
-86.394476
-90.407099
-157.3532
-186.61318
-165.28212
-178.40291
-179.13535
-165.05112
-162.63363
-137.43132
-129.80305
-112.74627
-113.0633
-147.1729
-138.45003
-130.48402
0
0
0
0
0
0
0
-122.36184
-159.18216
-148.73043
-143.73861
-117.70535
-152.17073
-142.98545
-155.82647
-153.36496
-169.60038
-168.92108
-151.86164
-154.93719
-154.55734
-126.92355
-147.31386
-156.75451
-97.684374
-171.13049
-115.44333
-109.18948
-168.39408
-166.22377
-164.3238
-175.68302
-161.97414
-166.92647
-170.90161
0
-117.68269
0
0
0
-91.390846
-86.92814
0
0
0
0
0
0
-83.995949
0
-80.552381
-77.58067
0
0
0
0
0
0
0
0
0
0
0
0
0
0
0
0
0
0
0
0
0
0
0
0
0
0
0
0
0
0
0
0
0
0
0
0
0
0
0
0
0
0
0
0
0
0
0
0
0
0
0
-73.890031
-69.640022
-60.808077
-61.81059
-85.327872
-75.301646
-70.215519
-34.898771
-32.49256
-41.371911
-42.191606
-28.311425
-33.128915
-35.834957
-55.09528
-36.986201
-48.361533
-49.170522
-41.894151
-55.516463
-37.609701
-49.945431
-42.088247
-57.503931
-40.004972
-55.905136
-38.195257
-51.678765
-53.189909
-53.639968
-67.116975
-45.433152
-66.42067
-54.680704
-44.631553
-62.781882
-86.382452
-72.325017
-78.125777
-76.724263
-70.80665
-64.428426
-43.013035
-29.073942
-35.29112
-37.922661
-33.762271
-44.447329
-36.770521
-185.48452
-169.67811
-178.48139
-182.58099
-181.69347
-193.81769
-170.83292
-199.33084
-191.94709
-201.35432
-208.56387
-203.11513
-206.39484
-200.62069
0
0
0
0
0
0
0
-190.6693
-170.0245
-168.46508
-185.95311
-204.83585
-199.49193
-186.75212
-91.335304
0
-121.03331
-138.15618
0
-105.13656
-90.207597
-139.69086
-84.523532
-135.22529
-153.48316
-100.98202
-159.86212
-95.226215
-155.09441
-103.16467
-161.53093
-96.272115
-162.11111
-97.218939
-153.78046
-170.09468
-163.49434
-183.06197
-144.15372
-183.15724
-141.96703
-171.77899
-186.90604
-203.27449
-188.35604
-197.59649
-198.38832
-187.41415
-187.832
-140.11034
0
-90.615124
-107.07223
-107.39654
-91.800501
-139.11934
0
0
0
0
0
0
0
0
0
0
0
0
0
0
0
0
0
0
0
0
0
0
0
0
0
0
0
0
0
0
0
0
0
0
0
-86.897463
-109.71401
0
-102.84083
-99.220567
-88.995042
-113.22169
0
0
0
0
0
0
0
0
0
0
0
0
-121.94436
0
0
0
-122.42107
0
-123.13504
0
0
0
0
-80.201939
0
-80.154733
0
0
-106.00336
-101.4486
-117.54995
-92.448575
-91.17745
-116.84366
-107.37924
0
0
0
0
0
0
0
-164.76839
-140.72415
-134.531
-145.56992
-168.01886
-175.50041
-148.72695
-76.912926
0
-92.016825
-102.81611
0
-87.361039
0
-114.64342
-65.357383
-99.901035
-110.0766
-87.891858
-123.82858
-73.093321
-110.00564
-87.235758
-121.79544
-71.853953
-122.76153
-72.448677
-110.0816
-151.20066
-176.26965
-197.99561
-130.82012
-194.71703
-130.46904
-150.90433
-146.04175
-167.02593
-147.05662
-177.39359
-176.30052
-147.80445
-146.73358
-102.8453
0
-57.59456
-87.902715
-87.58978
-57.376969
-102.91293
0
0
0
0
0
0
0
0
0
0
0
0
0
0
0
0
0
0
0
0
0
0
0
0
0
0
0
0
0
0
0
0
0
0
0
0
0
0
0
0
0
0
0
0
0
0
0
-75.18417
0
0
0
0
0
0
0
0
0
0
0
0
0
0
0
0
0
0
0
0
0
0
-76.960323
-139.40457
-110.8579
-105.99583
-109.12165
-104.64483
-79.043349
0
0
0
-77.341518
-77.356954
0
0
0
0
0
-68.255367
-67.345142
0
0
0
0
0
0
0
0
0
0
0
0
0
0
0
0
0
0
0
0
0
0
0
0
0
0
0
0
0
0
0
0
0
0
0
0
0
0
0
0
0
0
0
0
0
0
0
0
0
0
0
0
0
0
0
0
0
0
0
0
0
0
0
0
0
0
0
0
0
0
0
0
-70.557139
0
-71.11199
0
0
-81.981881
-61.158617
-69.064652
-82.406438
0
0
0
-83.405792
-67.314695
-95.360331
-87.634243
-117.80412
-93.932671
-110.27622
-102.19684
-81.36895
-73.841652
-57.450796
-55.628764
-55.663233
-65.364442
-62.865996
-67.666497
-80.627654
-59.056524
-58.135095
-105.80125
0
-93.668846
-91.224263
-87.221576
-90.738731
-85.840105
-65.775391
-101.20611
-77.751869
-74.081612
-59.700349
0
0
0
0
-51.53353
-54.635904
0
0
0
0
0
0
0
0
0
0
-77.75761
-76.863413
0
-68.315342
0
0
-50.532864
0
0
0
0
0
0
0
0
0
0
0
0
-81.706214
-75.714973
-61.327622
-80.071073
0
-65.238874
0
0
0
0
0
0
0
-94.490013
0
0
-78.659748
0
-93.982626
-76.489905
-113.62848
-140.44393
0
0
0
-113.97556
-137.3277
-134.52058
-129.8078
-133.74508
-107.04117
-125.78975
-149.28965
-117.61199
-116.12234
-116.97544
-94.84596
-93.904243
-96.510397
-115.45365
-110.42352
-92.629255
0
0
0
0
0
0
-114.61554
-67.246053
0
-120.7959
0
-107.33946
-135.64458
-117.06566
-100.45891
-98.145564
-89.561218
-115.79713
-98.384286
-104.49074
0
0
0
0
0
0
0
0
0
0
0
0
0
0
0
-29.992816
-47.741546
-42.908743
-53.778223
-38.479672
0
0
0
-44.732498
0
0
-38.087135
0
0
-77.415759
-57.30485
-56.549509
-65.276756
-62.116849
-47.410254
0
0
0
0
0
0
0
0
0
0
0
0
0
0
0
0
0
0
0
0
0
0
0
0
0
0
0
0
0
0
0
0
0
0
0
0
0
0
0
0
0
0
0
0
0
0
0
0
0
0
-112.8705
0
0
-105.63655
0
-87.280546
0
-99.338383
0
0
0
0
0
0
0
0
0
0
0
0
0
0
0
0
0
0
0
0
0
0
0
0
0
0
0
0
0
0
0
0
0
0
0
0
0
0
0
0
0
0
0
0
0
0
0
0
0
0
-138.76012
-88.075851
-99.999365
-128.79746
-134.7084
-114.92484
-130.1535
-131.64498
-115.11986
-114.31988
-134.65106
-129.84505
-114.32165
-128.95822
-104.94909
-111.66211
-105.74634
-105.41835
-112.938
-128.07662
-147.10089
-171.25928
-154.41846
-166.60523
-147.83505
-153.27897
-159.98901
-130.82538
-114.1807
-112.05275
-132.56501
-113.1126
-129.92546
-133.60748
-137.9623
-90.997585
-100.74297
-137.38168
-100.04696
-137.24721
-132.35247
-79.023304
-97.153766
-81.67138
-81.011491
-93.963882
-95.755931
-78.231761
-69.034039
-83.94036
-98.344627
-82.888065
-99.452867
-95.217658
-84.686382
-96.867171
-85.934772
-81.793997
-68.645324
-56.264414
-71.460278
-54.453627
-72.153346
-68.105239
-54.3271
-92.233373
-97.284918
-102.32084
-89.31769
-86.167918
-95.450977
-101.46719
-77.150111
-61.155732
-68.762357
-56.70765
-70.552005
-75.143107
-62.291272
-88.457062
-77.171039
-89.682799
-81.434605
-94.894717
-89.87173
-75.161845
-96.631149
-107.35917
-112.93325
-113.17269
-108.11556
-96.849852
-102.95571
-90.170551
-96.195418
-81.759389
-104.98008
-83.64671
-102.27296
-89.243764
-98.061524
-104.63467
-98.094655
-107.22909
-101.16498
-105.30019
-99.879653
-81.476309
-78.916494
-61.148859
-73.009284
-74.370112
-87.059055
-68.051814
0
-79.813594
0
-79.51245
0
0
-71.958025
0
0
0
0
0
0
0
0
0
0
0
0
0
0
0
0
0
0
0
0
0
0
0
0
0
0
0
0
0
0
0
0
0
0
0
0
-82.737328
-81.373709
0
0
-84.896289
0
0
0
0
0
0
0
0
0
0
0
-86.889551
-95.424195
0
0
0
0
0
0
0
0
0
0
-80.952449
0
0
-87.776266
0
0
0
-79.838528
0
-77.162355
0
-87.946495
0
0
0
0
0
0
0
0
-124.44425
-111.95087
-102.04108
-104.28035
-126.8576
-113.49426
-99.320116
-145.2809
-175.3449
-155.93947
-173.07817
-148.55647
-155.86699
-163.22838
-131.18028
-146.52788
-129.25714
-122.90103
-120.93905
-142.75892
-130.50192
-122.42846
-109.63618
0
0
-85.190654
-114.47276
-120.95445
-130.69888
-113.43416
-133.43943
-122.59796
-129.76356
-117.35692
-138.23146
-121.39209
-100.0773
-113.05146
-87.538917
-114.51269
-93.968687
-116.70068
-129.63848
-99.612951
-141.93348
-88.729119
-136.09009
-92.40236
-131.72462
0
0
0
0
0
0
0
0
0
0
0
0
0
0
0
0
0
0
0
0
0
0
0
0
0
0
0
0
0
0
0
0
0
0
0
0
0
0
0
0
0
0
0
0
0
0
0
0
0
0
0
0
0
0
0
0
0
0
0
0
0
0
0
0
0
0
0
0
0
0
0
0
0
0
0
0
0
0
0
0
0
0
0
0
-137.13587
-96.308636
-155.83601
-108.33808
-93.871689
-155.45001
-140.69789
-119.1435
-99.968949
-65.63164
-79.939223
-100.30028
-79.809596
-119.61144
-134.48289
-122.10275
-137.90992
-148.54054
-147.5779
-121.01305
-136.79151
-118.81804
-94.861599
-124.49545
-116.72226
-108.38173
-130.85732
-105.39822
-118.17602
-87.540035
-66.861652
-118.05479
-102.20262
-79.339434
-130.44047
-132.81009
-147.55969
-138.14628
-125.49298
-147.25485
-136.72527
-120.40814
-138.59594
-107.88542
-95.690922
-155.99625
-94.522462
-155.307
-140.83573
-138.5116
-160.61605
0
0
0
-157.7935
-148.03694
-107.41499
0
0
0
0
0
0
-158.81829
-172.30514
-184.22312
-157.15688
-170.57198
-178.73126
-147.83171
-138.91864
-151.40021
-162.22687
-134.85414
-147.6903
-160.92111
-120.71878
-153.60882
-161.50024
-170.44979
-163.24796
-164.77158
-156.39266
-167.28277
-137.55457
0
0
-132.6624
0
-155.32223
0
-115.36187
0
0
-111.10946
0
-131.52323
-88.354971
-157.3964
-166.69381
-122.73892
-120.81259
0
-166.3236
-158.08391
-141.09837
0
0
0
0
-121.14258
0
-164.08192
-161.75655
-155.33773
-160.42937
-160.74743
-167.50419
-157.45447
-160.04996
-182.05295
-178.64445
-156.69562
-164.45694
-174.46786
-156.34812
-163.21759
-163.11965
-156.29192
-168.55492
-161.64758
-164.14013
-167.28903
-158.80177
0
0
-165.30224
0
-165.38725
-151.11822
-143.81537
0
0
-130.39069
0
-148.56157
-127.75142
-156.78982
-102.81785
-158.00112
-110.51507
-106.89542
-150.5361
-156.77887
-166.71698
-166.42422
0
0
-160.28433
-111.14052
-161.9696
-162.07673
-139.47225
-140.95903
-132.33217
-157.77333
-147.8863
-147.47638
-162.14659
-158.47921
-163.78043
-151.75384
-158.62393
-159.19702
-156.58371
-160.20255
-98.477368
-99.578636
-134.34262
-151.06189
-106.76779
-147.59553
-156.42963
-153.62702
-138.49374
-156.91546
-147.96961
-157.40493
-149.7059
-159.40836
0
0
-139.33016
-108.48976
-151.99518
-150.35146
-107.71289
-77.160029
-86.51379
-86.772628
-96.692631
-77.654815
-108.21711
-87.00599
-97.531561
-79.88684
-109.96242
-78.241709
-88.251202
-108.69314
-15.290685
-24.411695
-18.881821
-19.31531
-21.601255
-24.875426
-15.794437
-16.728272
-23.791977
-19.597592
-19.988752
-20.844255
-24.112204
-17.112452
-26.683748
-27.321853
-22.470558
-22.856831
-31.277618
-27.12951
-27.588587
-16.849313
-10.406494
-14.96403
-14.516447
-18.16334
-13.930071
-13.375075
-20.386604
-21.166161
-25.704962
-18.588878
-24.398666
-21.736912
-17.507497
-19.746974
-22.209912
-26.953302
-17.750992
-25.331113
-21.35379
-16.314882
-29.125496
-28.119665
-32.090924
-31.996932
-24.740108
-28.214867
-29.150096
-41.557573
-47.511368
-46.294205
-32.568087
-52.106926
-37.356262
-37.841188
-48.524104
-49.115885
-70.745172
-54.236672
-61.184396
-55.912267
-43.129703
-56.11417
-49.404092
-60.061846
-42.347712
-53.863314
-62.692037
-44.766859
-58.158365
0
-67.774548
-46.302085
-56.378939
-68.572614
-47.250919
-69.53694
-72.590419
-78.212819
-91.788504
-69.03739
-78.615624
-79.46187
-50.308979
0
-46.08018
-35.076261
-53.21866
-41.933376
-41.959172
-58.792623
-54.199431
-70.725096
-54.883621
-61.985504
-65.966449
-48.781899
-68.473696
-74.630183
-79.606992
-92.055786
-66.423283
-76.997523
-81.193212
-47.742858
-37.033926
-39.146766
-33.059928
-46.058348
-38.854394
-40.440335
-100.04776
-118.7107
-91.564589
-107.12178
-105.0683
-89.483295
-120.65001
-80.741037
-57.932154
-80.790871
-81.133294
-92.389623
-63.723123
-73.088568
-95.987113
-83.049537
-113.42261
-105.05729
-92.0612
-86.323677
-116.98771
-29.420862
-39.158342
-31.811956
-31.875242
-27.175379
-34.295901
-34.430828
-21.140875
-13.174511
-16.099553
-15.718043
-19.624345
-17.28183
-16.979612
-28.352987
-26.504498
-40.3531
-28.060631
-33.19376
-33.388991
-23.436072
-28.506305
0
-39.385834
-28.869321
-33.153036
-34.396313
-23.39683
-33.646012
-44.737066
-47.895933
-47.699084
-40.287076
-38.948584
-39.471781
-25.180528
-27.655806
-19.896964
-25.255209
-23.417003
-29.661492
-21.247299
-25.040492
-28.815017
-19.256062
-26.469866
-23.164972
-30.758422
-20.830065
0
0
0
0
0
0
0
0
0
0
0
0
0
0
0
-80.923895
0
0
-65.079871
0
0
0
-66.35667
0
0
0
0
-55.972226
-60.702679
-54.518406
-51.851536
-40.731993
-64.421013
0
-51.382312
0
0
0
0
0
0
0
0
0
0
0
0
0
0
0
0
0
0
0
0
-46.77416
0
0
0
0
0
0
0
0
0
0
0
0
0
0
0
0
0
0
0
0
0
0
0
0
0
0
0
0
0
0
0
0
0
0
0
-198.54255
-178.72905
-199.86915
-210.25081
-201.67786
-191.68151
-202.22811
-193.68511
-190.94337
-193.92654
-203.61776
-194.12659
-190.17232
-196.31756
-181.98244
-178.8528
-175.12229
-179.00524
-180.34695
-174.41136
-184.93524
-160.77917
-164.02746
-138.51887
-149.18437
-156.08958
-169.08237
-139.90829
-182.8749
-200.60229
-189.09014
-208.35276
-185.31354
-186.24128
-203.96235
-148.14139
-158.855
-167.45021
-169.0039
-154.55471
-163.74963
-155.68892
0
0
0
0
0
0
0
0
0
0
0
0
0
0
0
0
0
0
0
0
0
0
0
0
0
0
0
0
-100.70661
-99.18348
0
0
-119.59058
0
0
-86.512487
-77.175669
-77.478188
0
-88.076268
-76.852396
0
-115.71857
-121.22122
-116.39482
-137.65386
-109.27161
-134.96744
-118.61166
-96.319647
0
-87.087429
-104.88129
-97.90578
0
0
-113.46438
0
0
-141.42384
-137.73087
0
0
0
0
0
0
0
0
0
0
0
0
0
0
0
0
0
0
0
0
0
0
0
0
0
0
0
0
0
0
0
0
0
0
0
0
0
0
0
0
0
0
0
0
0
0
0
0
0
0
0
-108.2289
-140.99921
-119.11099
-136.94778
-119.85238
-134.14813
-114.33061
0
0
0
0
0
-93.576518
0
0
0
-103.86614
0
-100.83153
0
0
0
0
0
-136.40862
-124.61745
0
0
0
0
0
0
0
0
0
-14.017819
-14.99353
-11.704798
-11.961533
-18.05153
-14.364006
-15.213647
-9.8816893
-10.376856
-13.574925
0
0
-12.817808
-10.612246
-8.7526278
0
-11.756953
0
-10.988823
-9.4527316
0
-12.226065
-18.397461
-16.505551
-15.610566
-14.720905
-15.535963
-13.033117
0
0
0
0
0
0
0
-27.151166
-19.787399
-24.981624
-25.149943
-22.467928
-27.248382
-19.995163
-23.13704
-14.975444
-23.556836
-18.58647
-21.702778
-17.559535
-24.237732
-31.801641
-42.477276
-41.311736
-34.969755
-40.739415
-34.074815
-32.821933
-30.13913
-41.68361
-31.397222
-42.581725
-41.432384
-29.30774
-31.667257
-25.299584
-22.666342
-21.24447
-28.215734
-27.333602
-20.223833
-26.25895
-29.072262
-26.770144
-20.314238
-20.629696
-26.590519
-30.185793
-22.127819
-39.210512
-50.75397
-45.318606
-38.039465
-49.483055
-41.231191
-35.943927
-43.691214
-62.827113
-63.675516
-45.27947
-58.887081
-49.86288
-46.692898
-33.975018
-44.904373
-30.374689
-34.094551
-35.816302
-42.473695
-27.869826
-39.456834
-36.254844
-47.81391
-56.750893
-53.248267
-35.462926
-41.497854
-30.777668
-23.006289
-30.412216
-27.284748
-32.683202
-28.477127
-24.846729
-32.367516
0
0
-30.78539
-39.496052
-33.393107
-25.05783
0
0
0
0
0
0
0
0
0
0
0
0
0
0
0
0
0
0
0
0
0
0
0
0
0
0
0
0
0
0
0
0
0
0
0
0
-36.966838
0
-59.446223
0
0
-43.063479
0
0
0
0
0
0
0
0
-14.647851
0
0
-11.495369
-15.99079
0
-11.024718
0
-12.591675
0
-13.482968
-10.217329
0
-16.558782
-21.789784
-24.774101
-25.53815
-19.47858
0
-21.614638
0
0
0
0
0
0
0
-15.017274
-17.843154
-16.674657
-22.236135
-17.783064
-14.004127
-19.255451
0
0
0
0
0
-18.153023
0
0
0
0
0
0
0
0
0
0
0
-114.17044
-85.93473
0
0
0
0
0
-105.98772
0
0
0
0
0
0
0
0
0
0
0
-141.55044
-183.3229
-180.37832
-171.30119
-166.58615
-153.8309
-160.13665
-104.06433
0
0
-131.53523
0
-122.32999
-112.79331
-98.394519
0
0
-134.01059
0
-110.18204
-120.12137
0
0
0
0
0
0
0
0
0
0
0
0
0
0
0
0
0
0
0
0
0
0
0
0
0
0
0
0
0
0
0
0
0
0
0
0
0
0
0
0
0
0
-152.51462
-194.99628
-195.45497
-182.82931
-181.24806
-166.13785
-169.74806
0
0
0
0
0
0
-121.43854
0
0
0
0
0
-117.12982
0
0
0
-141.44541
0
-129.96592
0
0
0
0
-148.209
0
-121.9686
0
-140.35135
0
0
0
0
0
0
0
0
0
0
0
0
0
0
0
0
0
0
0
0
0
0
-154.69163
-127.11164
-127.07899
-128.09274
0
-128.96987
0
0
0
0
0
0
0
0
0
0
0
0
0
0
0
0
0
0
0
0
0
0
0
0
0
0
0
0
0
0
0
0
0
0
0
0
0
0
0
0
0
0
0
-155.65782
-126.36145
-125.99225
-125.81751
0
-125.68596
0
0
0
0
0
0
0
0
0
0
0
0
0
0
-207.75637
-172.52331
-176.47768
-193.84611
-211.00095
-189.37098
-219.11776
-103.78235
-80.397295
-121.09043
-140.50059
-80.798738
-122.97427
-95.159579
-140.03851
-91.289554
-138.6344
-158.51043
-106.70763
-161.32238
-105.58192
-163.74084
-109.64499
-170.02124
-112.13455
-166.71533
-110.01566
-167.51307
-184.07777
-203.01724
-216.62439
-178.69662
-217.39116
-171.60913
-187.33828
-194.00719
-209.09061
-190.62783
-214.82445
-189.7822
-216.74387
-194.64382
-148.25403
-92.363333
-109.06483
-143.97814
-133.71009
-103.10173
-155.14988
0
0
0
0
0
0
0
0
0
0
0
0
0
0
0
0
0
0
0
0
0
0
0
0
0
0
0
0
0
0
0
0
0
0
0
0
0
0
0
0
0
0
0
0
0
0
0
0
0
0
0
0
0
0
0
0
0
0
0
0
0
0
0
0
0
0
0
0
0
0
0
0
0
0
0
0
0
0
0
0
0
0
0
0
-142.17106
-160.95598
-95.20058
-95.349865
-152.53195
-149.39726
-88.986626
-165.11055
-154.99635
-183.25535
-145.47882
-173.7655
-174.82129
-135.28603
-165.96008
-173.58616
-184.68609
-149.3647
-182.64864