/*--------------------------------*- C++ -*----------------------------------*\
  =========                 |
  \\      /  F ield         | OpenFOAM: The Open Source CFD Toolbox
   \\    /   O peration     | Website:  https://openfoam.org
    \\  /    A nd           | Version:  8
     \\/     M anipulation  |
\*---------------------------------------------------------------------------*/
/*   Windows 32 and 64 bit porting by blueCAPE: http://www.bluecape.com.pt   *\
|  Based on Windows porting (2.0.x v4) by Symscape: http://www.symscape.com   |
\*---------------------------------------------------------------------------*/
FoamFile
{
    version     2.0;
    format      ascii;
    class       scalarListList;
    location    "constant/vegetation";
    object      F;
}
// * * * * * * * * * * * * * * * * * * * * * * * * * * * * * * * * * * * * * //


212
(

2974
(
0.00076996441
0.0022995317
0.0011760885
0.0011715028
0.0010664763
0.0020801009
0.00032574345
5.6260806e-05
4.8046469e-05
4.5392242e-05
5.4593434e-05
5.0346078e-05
5.2926479e-05
5.2891433e-05
4.4563869e-05
4.9414578e-05
5.007721e-05
4.6256536e-05
4.8572984e-05
6.4062033e-05
7.7622559e-05
5.0144385e-05
4.5880933e-05
4.7506365e-05
4.7906326e-05
0.0081995615
0.00019794478
3.4129757e-05
6.5153418e-05
0.00040992652
9.6213574e-05
0.0017528235
3.0177879e-05
1.5298843e-05
1.0015262e-05
0.0043213135
0.070208068
0.00015921397
0.0028498185
0.00045273002
0.0002093405
0.0001744302
0.00020046391
0.000113242
7.9927452e-05
0.00013169897
0.00056271047
0.00039895484
0.0796819
0.0045224029
0.00071259431
0.00079977244
0.00013524769
0.00054184958
0.00039151295
9.6640656e-05
0.020922323
0.00017511243
0.00051323717
0.00020092973
0.010733097
0.000199121
0.0010110157
0.00019771462
0.00088688488
0.00016155717
0.00023020189
0.00081599194
0.00033346584
0.00079632097
0.00076288892
0.0035856628
0.00037304905
0.0010136717
0.00019865211
0.00032357348
0.00023166539
0.00020032787
0.00020251538
0.00091730742
0.00020001774
0.00016294006
0.0002974586
0.00071135121
0.00013418601
0.00056415733
0.00014424574
0.00017023267
0.00017116629
0.00019751816
0.0009800297
0.00022551658
0.0002360415
0.00023418058
0.0001238475
0.00013714828
0.00020059964
0.00018520819
0.00015530868
0.00091752778
0.0001230005
0.00010454108
0.00018878459
0.00026699984
0.00017366439
0.00016345009
0.19554521
0.020531686
7.5827822e-05
0.00010456785
7.884069e-05
9.2454035e-05
8.8796938e-05
0.00012083044
0.00010899753
0.00012029505
0.00010550475
4.2982679e-07
3.2273389e-06
1.6602084e-05
2.0364027e-05
2.6716026e-07
0.00011355168
1.850807e-07
2.2890602e-07
7.2960791e-05
2.2024125e-07
3.0083072e-07
0.00010033323
3.0244411e-07
2.3835152e-07
8.1999512e-05
2.4791768e-07
0.0001176353
1.724647e-07
1.79533e-07
9.62929e-05
2.8023534e-07
2.9138925e-07
8.5312392e-05
2.6885456e-07
2.5831947e-07
6.2632466e-05
2.5458247e-05
3.1168776e-05
1.3112349e-05
1.3295926e-05
1.4651944e-05
1.3749792e-05
1.2933228e-05
1.2499117e-05
1.1507301e-05
1.1993684e-05
1.1041047e-05
1.0599392e-05
0.00012597651
0.00013955467
2.642006e-05
2.357347e-05
2.2654689e-05
4.4344683e-05
4.6053821e-05
4.7146176e-05
4.3480085e-05
3.4970011e-05
2.6974825e-05
2.5518883e-05
0.00013498241
0.00010737598
8.9378581e-05
0.00011681262
0.00010425935
9.7045973e-05
4.6263354e-05
4.4074761e-05
0.00014422462
4.5732298e-05
4.3191794e-05
0.00010888546
3.3368826e-05
0.00012554702
0.00013985063
0.00012954203
0.00013116073
2.7336414e-05
2.9928649e-05
4.274195e-05
4.2098784e-05
4.1567675e-05
3.9594466e-05
3.6021361e-05
3.9588598e-05
4.3551925e-05
4.4999995e-05
4.4193066e-05
4.5537605e-05
4.5243583e-05
4.4729567e-05
4.6148365e-05
4.3355831e-05
4.2421626e-05
4.411054e-05
4.4753494e-05
3.6155604e-05
3.9210556e-05
4.1143565e-05
2.4472994e-05
2.7752006e-05
2.5535688e-05
2.4579723e-05
2.1702672e-05
4.5790048e-05
4.5304899e-05
4.6211193e-05
4.1639959e-05
4.5221523e-05
4.3098855e-05
3.8551164e-05
3.0692457e-05
3.9718549e-05
4.8389587e-05
4.4732797e-05
4.6095912e-05
4.6905616e-05
4.5259859e-05
4.8039724e-05
4.7417972e-05
0.0062462292
0.0053351386
0.0066141378
0.0030646042
0.0039070113
0.0023985428
0.0038951395
0.0061715254
0.0021027378
0.0071675765
0.002523825
0.0065574317
0.011673428
0.0052523228
0.00074654836
0.0013141016
0.00048367094
0.0029927447
0.00049895488
0.0022098377
0.00025307629
0.00017747682
3.593838e-05
0.00024429695
0.0022965919
0.0034026713
0.019399374
0.00086800346
0.0018949883
0.00039495255
0.00044281337
0.00012640287
0.00017684183
0.00017949593
0.00051858238
0.0048593159
0.00062590954
0.00036286215
0.00047572485
0.00017703261
0.00015829558
0.00014623457
0.00021230355
0.00017268304
0.00022313707
0.0006555181
0.0030538165
0.00017195086
0.00015677728
0.00027912553
8.6597158e-05
0.0054609575
0.0041778285
0.0024380374
0.041643856
0.0043479182
0.00017263352
0.00012594504
6.8224138e-05
0.00012037376
0.00018061956
0.00015087149
0.00014423207
9.9860297e-05
0.00010492101
0.00020168947
0.00018829984
1.2255302e-05
1.3584144e-06
8.5773813e-05
4.2470071e-07
0.00016504938
3.1632452e-07
0.00013177717
3.0035263e-07
0.00011503546
4.1130399e-07
0.0001889865
1.8680769e-05
0.00015780795
3.8182252e-07
1.6235396e-05
1.3513397e-05
0.00013786884
3.6487211e-07
1.5510447e-05
9.4188197e-05
1.6491929e-07
1.0867097e-05
1.2903498e-05
0.00010991237
2.3050143e-07
1.1270102e-05
1.9737851e-05
0.00019716178
7.5567468e-07
2.8933909e-05
0.00017901746
6.8269669e-06
3.8502132e-05
3.2922893e-06
0.00015007083
2.5261521e-07
0.00013098284
1.118862e-05
1.1893933e-07
4.1498854e-07
3.3222468e-07
2.8356215e-07
3.4093803e-07
1.779847e-05
3.9896805e-07
1.6994928e-05
1.415027e-05
3.4835339e-07
1.4815428e-05
5.8468905e-08
1.072582e-05
1.2320994e-05
2.6327555e-07
1.1771563e-05
2.123393e-05
2.5802153e-07
2.3863769e-05
5.4568251e-05
2.7550325e-05
7.9724617e-05
6.6342992e-05
3.8166148e-05
2.1652701e-05
2.0946861e-05
2.0730498e-05
0.00019486556
0.00025674898
0.0001958747
2.5170037e-05
2.1655326e-05
2.6394872e-05
0.00021025049
0.00027843113
0.00020997542
0.00031840651
0.00031408239
0.00030203112
0.00034533015
0.0001831366
2.6380992e-05
2.5486949e-05
0.00018922532
2.1499338e-05
2.139851e-05
1.7793023e-05
1.9190018e-05
3.3332996e-05
2.8927334e-05
2.4081878e-05
2.7630111e-05
1.8078438e-05
1.9516511e-05
2.306881e-05
2.0386944e-05
2.1596486e-05
2.1367297e-05
4.1823907e-05
3.6537949e-05
2.6438729e-05
3.4725219e-05
4.3778044e-05
5.0481207e-05
6.1238858e-05
5.2940203e-05
7.9989271e-05
6.8607107e-05
3.5342392e-05
4.885775e-05
5.7107948e-05
8.1157599e-05
8.374245e-05
8.5271492e-05
8.4323248e-05
8.6208927e-05
6.4770499e-05
8.2059144e-05
8.5507961e-05
8.6611408e-05
0.00014453016
0.00019748602
0.00014947039
0.00019026526
2.1626455e-05
2.1124015e-05
2.0437689e-05
0.00022506403
2.9449622e-05
3.3782704e-05
0.0002470331
4.0815054e-05
3.5376251e-05
3.1781142e-05
2.8685308e-05
2.7346751e-05
3.2115163e-05
2.1660045e-05
2.5808436e-05
2.1641123e-05
3.3869103e-05
2.6494261e-05
3.4617797e-05
3.9463234e-05
3.3548705e-05
3.6799945e-05
0.00026732403
5.7050202e-05
4.9263332e-05
4.0737583e-05
0.00024302379
4.6970977e-05
7.2380983e-05
4.3995693e-05
6.3140589e-05
0.00032902925
7.6200797e-05
7.5313662e-05
7.2554189e-05
0.00032477176
7.4803685e-05
6.125608e-05
7.7428216e-05
8.3477721e-05
2.6189602e-05
3.3768094e-05
3.3490168e-05
3.2536664e-05
2.6065253e-05
3.3321234e-05
2.1575356e-05
2.1273634e-05
1.998072e-05
2.1620415e-05
3.1727427e-05
0.00019637953
3.2482732e-05
3.295101e-05
0.00019852192
3.2650468e-05
1.8537266e-05
1.9872533e-05
2.5348858e-05
3.0588671e-05
1.9323129e-05
2.5021571e-05
3.07095e-05
3.2201159e-05
3.7135726e-05
3.8942407e-05
4.4890783e-05
4.7059471e-05
5.4220558e-05
5.6915827e-05
6.7597706e-05
7.0367162e-05
2.4649718e-05
2.8717343e-05
2.6401251e-05
3.019515e-05
2.63464e-05
3.0173244e-05
2.5719446e-05
2.9119275e-05
3.1724699e-05
3.0285446e-05
2.520061e-05
2.6388759e-05
1.8847242e-05
2.2155262e-05
2.1279312e-05
4.0177163e-05
4.0016025e-05
3.8282893e-05
3.4812564e-05
3.3123769e-05
3.2852419e-05
4.213575e-05
4.5893647e-05
4.813411e-05
4.859479e-05
5.8824727e-05
5.8243584e-05
5.0952351e-05
5.5517385e-05
8.8937667e-05
7.8277206e-05
7.5029157e-05
8.1075371e-05
3.8150748e-05
4.2413213e-05
7.5309892e-05
9.0316453e-05
8.2152202e-05
8.3019126e-05
9.3282145e-05
9.490088e-05
8.5057826e-05
9.3940458e-05
8.476021e-05
4.9138899e-05
5.4148761e-05
8.0850673e-05
9.5932063e-05
6.1956249e-05
6.9253953e-05
7.645405e-05
7.5163148e-05
9.4900436e-05
8.5830296e-05
9.5108191e-05
8.6223721e-05
5.0049781e-05
5.179391e-05
0.00017247849
0.00016011515
0.00019642058
0.00021395483
0.0001786015
0.00016193585
0.00018945167
0.00021128393
3.0704537e-05
3.1323527e-05
2.3645531e-05
2.3603734e-05
2.4668788e-05
2.9530087e-05
3.2341293e-05
3.4040132e-05
2.6424343e-05
3.0498144e-05
3.2732539e-05
3.429245e-05
2.6283208e-05
2.9947346e-05
3.2314805e-05
3.3700796e-05
3.2070038e-05
3.3616095e-05
3.1159755e-05
3.2849236e-05
2.590868e-05
2.9801464e-05
3.3108864e-05
3.1911337e-05
3.0792518e-05
2.8986944e-05
3.226148e-05
3.3804001e-05
3.880483e-05
4.0229726e-05
3.7049661e-05
3.5347776e-05
2.8696839e-05
3.2117595e-05
2.8685698e-05
2.8539483e-05
2.8479442e-05
3.1173903e-05
3.9040141e-05
3.3861934e-05
3.0305894e-05
3.49423e-05
3.8432153e-05
3.6303867e-05
5.4201328e-05
4.8294407e-05
5.1673937e-05
4.2311914e-05
4.2678344e-05
3.4463351e-05
4.4785477e-05
4.0404662e-05
7.2793908e-05
5.7818038e-05
4.932259e-05
4.3610468e-05
7.0795583e-05
5.6181185e-05
7.59468e-05
6.0138258e-05
7.5707434e-05
6.0430019e-05
7.3389394e-05
5.7289456e-05
7.4177048e-05
6.0040089e-05
6.7856124e-05
5.2366829e-05
8.0189835e-05
6.1814062e-05
7.6075883e-05
8.2812274e-05
2.8309367e-05
3.200744e-05
3.2275399e-05
2.9450504e-05
2.9419848e-05
3.2852636e-05
3.2779215e-05
2.9599969e-05
5.2795976e-05
5.5639591e-05
5.3961343e-05
5.3539542e-05
5.0536914e-05
5.4410726e-05
5.214117e-05
5.2822259e-05
2.934642e-05
2.7784988e-05
2.9302433e-05
3.3768344e-05
3.5412606e-05
4.0834439e-05
4.2815328e-05
4.9331589e-05
5.1710089e-05
5.9927634e-05
6.3501263e-05
0.00011140036
4.3515232e-05
6.1443829e-05
5.3494761e-05
2.8001388e-05
3.0224027e-05
3.0130727e-05
2.9398354e-05
3.8312182e-05
3.6529745e-05
3.1415753e-05
4.4189425e-05
4.6339948e-05
5.6027064e-05
5.3424088e-05
8.7201438e-05
8.4774882e-05
9.1475404e-05
9.2460366e-05
9.4751421e-05
9.4432152e-05
9.5560201e-05
6.5718441e-05
7.0567636e-05
9.4805926e-05
9.4761621e-05
0.00018973551
0.00021109723
0.00019197365
0.00020854707
2.98693e-05
2.653567e-05
2.8129012e-05
3.2381829e-05
3.0306866e-05
3.2492512e-05
3.0056879e-05
3.2269492e-05
3.2189513e-05
3.1469597e-05
2.9619926e-05
3.1712979e-05
3.075864e-05
3.2160377e-05
3.8730509e-05
3.7017085e-05
3.298603e-05
3.2435632e-05
3.9055399e-05
3.7867481e-05
3.5860653e-05
4.5299158e-05
4.6488278e-05
4.4368912e-05
3.6656838e-05
3.8384786e-05
6.5087393e-05
5.553306e-05
7.6051545e-05
6.0837077e-05
6.0627744e-05
5.8829868e-05
5.940611e-05
6.5668989e-05
7.1682615e-05
8.9274854e-05
2.8974853e-05
2.9195492e-05
2.9748595e-05
2.9665058e-05
0.0027419087
0.003113818
0.0079623138
6.9553898e-05
7.3511176e-05
0.00057485703
0.00020542621
6.277178e-05
7.814276e-05
9.2132974e-05
0.00011276017
0.00016171661
0.00041933536
0.00011978979
0.00012521443
8.117821e-05
0.00029117251
0.00010406792
0.000227044
0.00071030815
0.00014513341
0.0056515286
1.3751925e-05
1.3361782e-05
6.9246441e-08
0.00013893112
6.995427e-08
0.000134889
1.417043e-05
1.4606761e-05
6.5588184e-08
0.0001271207
5.5515086e-08
0.00013094902
1.3226228e-05
0.00012298413
1.8856765e-07
0.00011877346
1.6635158e-05
1.7737018e-05
2.2946932e-07
0.000143042
6.4022645e-08
0.00014666536
1.5777592e-05
1.5060028e-05
3.4682812e-07
0.00015230962
2.0302686e-07
0.00014991945
2.4395887e-05
1.9993751e-05
0.00016087425
0.00016624264
0.00018414006
0.00017724402
0.00017320947
0.00017975186
0.00018287384
0.00017608464
0.0001513917
0.0001848373
0.00018258035
0.00016260757
0.0001500164
0.00015396319
4.994961e-05
5.2407401e-05
5.0885246e-05
5.1214764e-05
5.2693465e-05
5.3367026e-05
5.2049493e-05
5.4056921e-05
5.4476195e-05
5.5913649e-05
5.5848575e-05
5.4568124e-05
0.00018400083
0.00017183161
0.00016569338
0.00018179236
5.1666233e-05
5.2641715e-05
5.4056569e-05
5.3409866e-05
5.5913602e-05
5.6005687e-05
5.0271884e-05
4.8054476e-05
5.4609624e-05
5.5073635e-05
5.5726665e-05
5.5445917e-05
5.2323596e-05
5.0406942e-05
4.8224516e-05
5.5264432e-05
5.6387503e-05
5.6406581e-05
6.020567e-05
5.9796669e-05
5.3857804e-05
5.4632778e-05
5.8366586e-05
5.713864e-05
2.4597912e-05
2.533159e-05
2.6894984e-05
2.6107481e-05
4.7707768e-05
4.2543341e-05
4.8033723e-05
4.3520135e-05
3.098427e-05
2.9585491e-05
2.768424e-05
2.8559828e-05
3.3257796e-05
3.6190314e-05
5.3226795e-05
5.5041404e-05
5.4595987e-05
5.3669751e-05
5.4295873e-05
5.5399163e-05
5.402711e-05
5.5668798e-05
3.8691068e-05
3.7991606e-05
3.9913696e-05
3.5927548e-05
3.8489577e-05
3.9832164e-05
3.8339008e-05
3.9883288e-05
3.8424782e-05
3.9382386e-05
4.2401757e-05
4.1298533e-05
4.0483392e-05
3.8510523e-05
3.9847183e-05
3.7733925e-05
4.0514228e-05
4.3074146e-05
4.3724129e-05
4.1731872e-05
4.5146878e-05
4.448043e-05
4.8131601e-05
4.6623866e-05
4.5936861e-05
5.4346663e-05
5.5748861e-05
5.4199524e-05
5.5731385e-05
5.4491158e-05
5.5867863e-05
5.4570652e-05
5.5788727e-05
4.8973874e-05
4.9653264e-05
4.7437912e-05
5.121995e-05
0.0001729749
0.00017098138
4.4391121e-05
4.5019017e-05
3.4867539e-05
3.7829012e-05
3.6866474e-05
3.8827671e-05
3.9988593e-05
4.3970768e-05
4.5408224e-05
4.2582793e-05
4.1251184e-05
5.5916179e-05
5.6006706e-05
5.5721219e-05
5.5353174e-05
4.843617e-05
4.6893428e-05
3.4211522e-05
3.531107e-05
4.5133121e-05
4.3406919e-05
3.7447701e-05
3.6403442e-05
4.6489515e-05
4.759575e-05
4.1195414e-05
4.7387067e-05
4.005268e-05
5.145044e-05
3.8088305e-05
3.8881371e-05
4.4356919e-05
4.8142038e-05
5.5979606e-05
5.6245129e-05
6.0060531e-05
5.9808832e-05
5.5626133e-05
5.5183784e-05
5.8934987e-05
5.9453832e-05
4.5301429e-05
4.6843731e-05
5.1567355e-05
4.9531645e-05
4.9870632e-05
4.8379067e-05
5.3200411e-05
5.4570112e-05
4.3483501e-05
4.2126523e-05
4.1600162e-05
4.7355913e-05
4.1100823e-05
4.0811255e-05
4.0728976e-05
4.5286559e-05
4.0580222e-05
4.0837827e-05
4.1423098e-05
4.6163609e-05
5.511452e-05
5.5373758e-05
5.3829185e-05
5.9865453e-05
5.5756149e-05
5.534898e-05
5.2989827e-05
5.8833032e-05
5.0895613e-05
5.2158873e-05
5.133709e-05
5.5324453e-05
4.6050856e-05
0.012313972
0.00051226283
0.0001362039
0.0001834939
6.0696484e-05
0.0019359144
0.0035112501
0.0013056357
0.001687189
1.1295798e-05
9.9992864e-06
1.2817309e-05
1.2102462e-05
1.2480455e-05
1.317098e-05
8.8990917e-06
1.3434175e-05
1.308847e-05
1.276054e-05
1.2153172e-05
1.2462696e-05
9.1809866e-05
0.00015060081
6.700434e-05
0.00031816924
7.3630474e-05
5.7713779e-05
4.9834591e-05
3.6174811e-05
0.00020792551
4.0131893e-05
0.00098195911
2.2710088e-05
2.2585186e-05
2.7092267e-05
3.1531043e-05
1.3792864e-05
1.4549546e-05
1.4165191e-05
1.4946986e-05
1.5358226e-05
1.6677785e-05
1.7147869e-05
1.6222548e-05
1.5783521e-05
2.1023991e-05
2.1783063e-05
2.036647e-05
1.9766036e-05
1.8138166e-05
1.7634538e-05
1.8659483e-05
1.9200429e-05
0.00028403016
0.00024613
0.00030123883
5.2468121e-05
6.2678326e-05
0.00065304997
7.3288949e-05
0.00087961848
0.00029312695
9.9280156e-05
0.00021567186
7.0245543e-05
0.00013563076
0.00016078553
6.4021154e-05
0.0002297559
0.00052865252
0.00011691251
6.7318275e-05
0.0068024852
0.0039490531
9.3958158e-06
9.0341252e-06
9.7782759e-06
1.0177771e-05
0.001947063
0.0010268871
0.00091027167
0.0028129919
4.6625918e-05
3.2050251e-05
6.1462378e-05
0.00013827958
6.3073837e-05
3.6960738e-05
7.087727e-05
0.00013673888
3.1441812e-05
7.8532242e-05
4.6694071e-05
2.7523973e-05
2.509387e-05
3.70473e-05
0.0030673084
0.0025930034
8.6721104e-06
9.5795051e-06
7.6847654e-06
7.5685385e-06
3.4006847e-05
6.1370086e-06
7.4543879e-06
6.2175964e-06
6.1706919e-06
5.8225667e-06
6.5177477e-06
6.2208061e-06
7.1242333e-06
7.1678734e-06
6.8518679e-06
8.5606493e-06
7.7923606e-06
8.1851257e-06
8.3208139e-06
7.9003675e-06
7.3429977e-06
7.9365998e-06
7.5774998e-06
6.541541e-06
8.33425e-06
8.9281694e-06
8.5924112e-06
7.7560026e-06
7.5262618e-06
7.9872578e-06
8.2361398e-06
6.8933768e-06
6.6748625e-06
7.0866964e-06
7.2991245e-06
7.2455678e-06
8.4755779e-06
9.3756267e-06
9.1984177e-06
8.091501e-06
0.0010874509
0.00053576618
0.0010244635
6.2246189e-05
0.00033781064
5.4319915e-05
7.4278597e-05
0.00019037586
6.6718849e-05
5.8120322e-05
0.0029131806
5.6230586e-05
5.8305121e-05
5.0543202e-05
4.8811072e-05
6.5122695e-05
6.7613803e-05
1.6886369e-07
5.4251374e-05
1.6293274e-07
1.7531076e-07
6.0474139e-05
1.8182258e-07
5.2356941e-05
1.5163018e-07
1.570558e-07
6.2742677e-05
1.9604322e-07
1.888865e-07
7.022184e-05
2.0381236e-07
2.1168057e-07
6.9268497e-06
6.6793988e-06
6.2153596e-06
6.4416168e-06
7.1877873e-06
7.4595447e-06
8.044352e-06
7.745508e-06
8.3587741e-06
8.687585e-06
6.6565478e-05
3.5549717e-05
4.3878476e-05
5.0068096e-05
5.3586876e-05
9.0957828e-05
7.1800179e-05
9.8739949e-05
1.4172836e-05
1.2689397e-05
1.4684977e-05
1.6472878e-05
1.9258544e-05
1.7090761e-05
2.0011353e-05
5.4129663e-05
5.5776002e-05
5.1831406e-05
3.881643e-05
8.2309251e-05
7.7566959e-05
6.0108019e-05
6.4872132e-05
5.0985236e-05
6.7996165e-05
7.3673353e-05
6.8347311e-05
6.3451348e-05
5.8957972e-05
6.3472209e-05
6.5933815e-05
7.2946904e-05
6.7637826e-05
8.2950879e-05
7.8798074e-05
8.5256671e-05
7.9635349e-05
8.392649e-05
7.5911201e-05
7.011987e-05
7.2390531e-05
5.8149965e-05
7.1066617e-05
9.7456052e-05
7.6717467e-05
4.5073125e-05
5.0770627e-05
8.9834408e-05
0.00010031436
9.239865e-05
1.3641461e-05
1.3175025e-05
1.5268857e-05
1.5830419e-05
1.8479709e-05
1.7798177e-05
2.0872205e-05
1.2452575e-05
1.3192473e-05
1.4125533e-05
1.3632409e-05
1.4605157e-05
1.4867749e-05
0.0025586226
0.001221694
0.0015582469
0.0011597738
0.0014556998
0.0029032939
0.0042870255
0.00048902282
0.00038431649
0.00028951668
0.0094628745
0.0011732438
0.00037355088
0.00014877651
0.00058343447
0.00062323311
0.0061195495
0.020357363
0.0032483728
0.0081531307
0.0032510913
0.00034277407
0.00025650309
0.00033114932
0.00025375328
0.00024353901
0.00037733583
0.00038627396
0.00029690676
0.00028579888
0.0002119673
8.6383784e-07
0.00035445425
9.6222874e-05
0.00034268229
8.4238093e-07
0.00031961203
6.4013937e-07
0.00026419751
5.993094e-07
0.00023349421
3.7375565e-05
0.00036612671
6.5744051e-07
4.256546e-05
0.00010941996
0.00038491912
4.531321e-07
4.6597851e-05
3.6077983e-05
0.00030818283
7.5895382e-07
3.2293421e-05
2.753209e-05
0.0002748902
7.3012475e-07
3.1065676e-05
2.6439145e-05
0.00022330633
1.8132858e-07
2.4767899e-05
8.6909956e-07
1.2786343e-05
8.1589697e-07
6.7186633e-07
5.2910997e-07
3.8741455e-05
8.235048e-07
4.0329884e-05
6.9362633e-05
1.3737009e-06
5.4570518e-05
3.480251e-05
7.8769683e-07
3.354053e-05
2.8679035e-05
7.0124019e-07
2.9859742e-05
2.5459698e-05
3.8785634e-07
2.4757135e-05
6.2743156e-05
0.00013226439
0.00015006201
0.00060496426
0.00012162751
9.4187997e-05
7.8294133e-05
0.00010037057
0.00015766956
0.00066708355
0.00016245196
0.00038486198
0.00040173112
0.00040229639
0.00050745218
0.00040862327
0.00044622318
0.00055981545
0.00044118769
0.00015283777
0.00060527496
0.00016241808
0.00057647632
9.7224525e-06
1.0807807e-05
1.0040955e-05
1.6026905e-05
1.3063016e-05
1.2697629e-05
1.24227e-05
1.6576153e-05
1.6775504e-05
1.9064058e-05
1.7421531e-05
4.6844989e-05
6.7085996e-05
7.7175818e-05
0.00012514348
8.2882051e-05
2.7467129e-05
3.1889581e-05
3.7242267e-05
3.3345454e-05
3.000559e-05
2.3319948e-05
2.2522143e-05
2.2399762e-05
4.6506971e-05
5.3090393e-05
4.6758411e-05
4.4254585e-05
4.4845905e-05
0.00016220401
0.00015123061
0.0001266933
0.00014391461
6.4527328e-05
5.768531e-05
4.9183147e-05
5.5482308e-05
4.7363314e-05
4.3929677e-05
8.8164577e-05
7.85617e-05
9.1846837e-05
0.00010414385
0.00012183993
0.00010844694
0.00010590583
0.00013857292
0.00010866516
0.00030056339
0.00039720494
0.00037895307
0.00031399368
4.1165995e-05
1.0244506e-05
9.9198403e-06
6.7776331e-05
7.2564422e-05
1.7797225e-05
5.685573e-05
6.2960977e-05
1.7139154e-05
0.00015373829
0.00016841581
0.00013803779
0.00013534841
0.00010927854
0.00012370128
8.3858388e-05
0.00010387999
0.00013068934
0.00014168732
3.4135048e-05
0.0001088035
0.0001191971
3.2643859e-05
0.00013437838
0.00011985991
0.00014571979
0.0001620802
0.00014999431
0.00015198027
6.801039e-05
0.00041476295
7.0161093e-05
0.00042073901
7.1481538e-05
7.0644915e-05
0.00045961355
6.0349581e-05
6.8070235e-05
0.0004973752
7.928461e-05
7.0787285e-05
6.7901196e-05
5.9086001e-05
5.8341438e-05
8.3342947e-05
7.2758496e-05
7.9387992e-05
0.00011364408
0.00054765332
0.00010108957
8.5617983e-05
0.00050506969
9.7067744e-05
0.00015894313
0.00014077506
0.00014636218
0.0001603237
0.0001495755
0.00014759984
4.5033461e-05
3.9343381e-05
4.5503719e-05
0.0001321355
0.00063303924
0.00013032116
0.00012441163
0.00062281704
0.00012924033
0.0001413305
0.00013086842
0.0001313414
8.5722401e-05
8.6255746e-05
6.8584747e-05
7.7871586e-05
8.1304734e-05
9.2175076e-05
9.5957878e-05
0.0001076556
0.00011163889
0.00012423912
0.00012925741
0.00017924283
5.3005082e-05
0.00014665158
0.00014704111
0.00016224232
0.00015954517
0.00015520544
0.00015002323
0.00016206147
0.00015946316
6.9967096e-05
7.3221961e-05
0.00010247646
9.1759567e-05
0.0001575109
0.00015842975
0.00015859437
0.00014230008
0.00012127449
0.00013193151
0.00013592285
0.00013761226
6.2184536e-05
5.9920626e-05
5.1202369e-05
5.3320795e-05
4.5811124e-05
4.4576756e-05
8.4489807e-05
8.4780337e-05
8.1619223e-05
7.4498247e-05
8.8201923e-05
9.5804735e-05
0.00010003023
9.9926301e-05
0.00011690038
0.00011726592
0.00010415022
0.00011282696
0.00011529788
0.00010909979
0.00011887314
0.00012001346
0.00011045508
0.00012049635
0.00035483143
0.00033463217
0.00040231667
0.00042957628
0.00038419341
0.00042279793
0.00033961162
0.00037114894
0.00014669989
0.00013371738
0.00014206844
0.0001234254
0.00011766772
0.0001253385
0.00016198068
0.0001594055
0.00015936255
0.00015054305
0.00015967169
0.00015124787
0.00015723607
0.00015607237
0.00014983459
0.00014296468
0.00015588334
0.00014482112
0.00016136491
0.00015741285
0.00015925122
0.00014915678
0.00015721344
0.00014853157
0.00010285666
0.00012384218
9.1104831e-05
8.3513174e-05
9.8519277e-05
0.00011914571
0.00011159191
0.00013946478
0.00012911474
0.0001025784
0.00013866885
0.00014429664
6.8811222e-05
6.0133104e-05
6.9564643e-05
6.3059589e-05
7.1237749e-05
6.3252276e-05
7.1015163e-05
6.3487107e-05
6.2780242e-05
5.9610132e-05
6.5410611e-05
6.8342785e-05
7.6319833e-05
7.8429453e-05
7.355289e-05
7.0985505e-05
6.8401806e-05
6.0753349e-05
5.9463591e-05
5.8973752e-05
6.6308809e-05
5.9638356e-05
8.2880377e-05
7.1588382e-05
7.5690901e-05
6.5142615e-05
8.2151308e-05
7.8495835e-05
0.00010929453
9.6298205e-05
0.00010518853
8.6938068e-05
8.9249613e-05
7.2520704e-05
9.3134499e-05
8.3585046e-05
0.00010854593
0.00013165387
0.00013114859
0.00010876458
0.0001022484
0.00012623014
0.00012790259
0.00010789553
7.8838476e-05
0.00010063794
4.5521519e-05
4.4232607e-05
4.323092e-05
1.1373474e-05
1.2836575e-05
1.3344772e-05
2.0204739e-05
8.1000176e-05
2.3196853e-05
2.6892116e-05
8.7898172e-05
2.4153149e-05
4.6992138e-05
4.7597229e-05
4.6677186e-05
4.5888615e-05
4.68227e-05
4.6042153e-05
3.7803045e-05
4.1624348e-05
3.9385991e-05
4.263055e-05
4.2915568e-05
4.0777958e-05
1.0470684e-05
9.2242614e-06
8.9709455e-06
1.03966e-05
1.048066e-05
1.0066872e-05
9.5232776e-06
1.155751e-05
9.8691923e-06
1.4410415e-05
1.5430491e-05
1.4840311e-05
1.7978381e-05
1.5893115e-05
1.5395136e-05
1.8308601e-05
1.8389731e-05
1.7630679e-05
1.649719e-05
2.0169644e-05
1.7189922e-05
1.3912588e-05
1.3905359e-05
1.335042e-05
1.5109813e-05
1.2382447e-05
1.2900741e-05
1.087426e-05
1.1794242e-05
1.118517e-05
1.1828225e-05
1.2008254e-05
1.1434307e-05
4.6446103e-05
4.6775963e-05
4.6348746e-05
5.2842631e-05
4.6689856e-05
2.5527766e-05
2.576407e-05
2.436291e-05
2.2159315e-05
2.432771e-05
2.3111103e-05
1.925824e-05
2.1047106e-05
1.9924534e-05
2.1288185e-05
2.1555571e-05
2.0487363e-05
2.6290118e-05
2.8590137e-05
2.7416463e-05
3.3919655e-05
3.0137117e-05
2.8961155e-05
3.5687457e-05
3.5702689e-05
3.4125714e-05
3.1496002e-05
3.889378e-05
3.3045328e-05
7.1440621e-05
7.4568507e-05
8.4838724e-05
8.8467312e-05
9.9805145e-05
0.00010370879
0.00011567218
0.00011982102
0.00013447634
0.00013550964
4.5492132e-05
4.2807775e-05
4.2653784e-05
0.00014280748
4.6796271e-05
4.6718385e-05
0.00015944632
3.5628801e-05
3.7306182e-05
9.9608621e-06
9.6432006e-06
1.3548939e-05
1.4040056e-05
1.7506745e-05
1.6855697e-05
1.3078549e-05
1.2627562e-05
1.0302486e-05
1.0649079e-05
0.00015240469
4.6754537e-05
4.665765e-05
0.00015910563
2.4091e-05
2.3118603e-05
1.8209939e-05
1.893022e-05
2.5090563e-05
2.6169029e-05
3.4015309e-05
3.2523092e-05
0.00014937539
4.5944833e-05
4.3266173e-05
0.0001488665
0.00012577755
0.00013055941
8.0945006e-05
7.7602798e-05
9.2043422e-05
9.599113e-05
0.00011259114
0.00010834276
9.30026e-05
0.00010153061
9.3529788e-05
0.00039226547
0.00043164463
0.00042498112
0.00039826109
0.00014190097
0.00013580682
0.00013334166
4.6390745e-05
4.6548736e-05
0.00015933304
0.00015935249
0.00015941429
4.0971453e-05
3.9058092e-05
8.7777738e-06
8.5034649e-06
9.0592215e-06
9.347692e-06
1.5097306e-05
1.4556193e-05
1.5664223e-05
1.6250729e-05
1.1781006e-05
1.2197687e-05
1.1376697e-05
1.1000009e-05
0.00015440364
0.0001522379
0.00015422849
4.6501874e-05
0.00015842468
0.00015888805
0.00015821512
2.1285862e-05
2.2173171e-05
2.0452304e-05
1.9667242e-05
2.8549162e-05
2.7333408e-05
2.9818573e-05
3.1142796e-05
4.5905082e-05
4.7318583e-05
4.3483811e-05
4.1906194e-05
4.3188825e-05
4.1480748e-05
4.5745725e-05
4.3736698e-05
4.8778342e-05
1.0336387e-05
1.1228307e-05
1.1335317e-05
9.3758769e-06
1.0882844e-05
1.0264482e-05
1.8059925e-05
1.9525104e-05
1.9827846e-05
1.6134758e-05
1.8822425e-05
1.7698265e-05
1.2045892e-05
1.240777e-05
1.3532036e-05
4.5320023e-05
4.7583773e-05
2.1528111e-05
2.2142675e-05
2.360186e-05
2.230485e-05
2.5503267e-05
2.4529491e-05
2.6367645e-05
2.9552361e-05
2.8892156e-05
2.5182736e-05
2.6519429e-05
2.7749763e-05
3.4891063e-05
3.7503903e-05
3.8359365e-05
3.0474894e-05
3.5911637e-05
3.3430359e-05
0.00011613058
0.00010339817
0.00013535411
0.00013044981
0.00012515916
0.00016304212
6.1745143e-05
6.2372356e-05
6.3941619e-05
6.371153e-05
6.2928549e-05
6.5442445e-05
7.6449435e-05
7.3730155e-05
6.9478103e-05
6.7439816e-05
8.191978e-05
8.048186e-05
7.6910642e-05
9.6975946e-05
9.3856485e-05
9.0400838e-05
7.6742449e-05
7.9926841e-05
0.00010971641
0.00010925711
0.00010526255
0.000106539
0.0023476764
0.0010904456
0.0021868482
0.00057641816
0.014705245
0.00095022259
0.00099162825
0.00013662611
0.001039287
8.9698725e-05
0.006456445
0.00011497461
0.00021776092
4.3788841e-05
0.0001808545
0.00023687165
0.00022594774
0.0008092717
0.0001599329
0.001596478
0.00013311602
0.00013909413
4.6377898e-05
0.00021137233
0.00018057813
3.7845241e-05
5.2471233e-05
4.7467299e-05
6.2678044e-05
4.8469395e-05
7.4444121e-05
4.3427544e-05
5.0096684e-05
0.00021095926
3.9973698e-05
9.8840945e-05
3.8735312e-05
3.5013401e-05
3.8614443e-05
0.00032055467
0.00023969513
6.4579868e-05
0.0002380145
0.0026487301
0.024184141
0.0047965058
0.0030589402
0.00019504025
9.6242622e-05
0.00016006186
5.1204804e-07
2.647063e-05
4.0933103e-05
2.8872677e-05
3.8226738e-06
3.0004246e-05
7.352104e-05
7.2723795e-05
7.0018974e-05
7.2234566e-05
4.4224052e-05
6.894481e-05
5.6513137e-05
7.3735366e-05
7.4941445e-05
7.4809663e-05
6.5661398e-05
5.9149941e-05
5.9364256e-05
5.9516955e-05
5.9517025e-05
5.8946344e-05
5.8561282e-05
5.6835942e-05
5.6028842e-05
5.118186e-05
4.7357408e-05
6.7260277e-05
7.3342751e-05
6.6589382e-05
7.3093148e-05
6.4130441e-05
7.0883821e-05
7.1622447e-05
6.6147536e-05
4.4588291e-05
6.3098491e-05
6.7205981e-05
6.3653289e-05
5.3624441e-05
6.7294805e-05
7.4052281e-05
7.4470535e-05
6.7444779e-05
7.0968801e-05
6.722044e-05
6.0964174e-05
6.0466185e-05
5.6505524e-05
5.9365614e-05
5.944897e-05
5.9425291e-05
5.9234702e-05
5.8082366e-05
5.7510299e-05
5.4995871e-05
5.3517274e-05
6.7141632e-05
6.6921153e-05
6.4931312e-05
6.5596737e-05
6.1544484e-05
5.8783763e-05
6.7286347e-05
6.7308273e-05
6.3973216e-05
0.0016367739
0.0024154316
0.0015177407
0.0005250898
0.00056472045
0.00075759889
5.4008702e-05
5.4838765e-05
5.6828358e-05
5.2832869e-05
5.1525887e-05
5.5467939e-05
1.5575845e-05
1.5803988e-05
5.5873513e-05
5.419072e-05
1.342242e-05
1.4170575e-05
1.4001906e-05
1.3583591e-05
1.390622e-05
1.4339581e-05
1.3745359e-05
1.4508074e-05
1.4067954e-05
1.4844905e-05
1.4677148e-05
1.4228505e-05
1.8097317e-05
1.8616581e-05
2.1131408e-05
1.6040006e-05
1.6974219e-05
1.6915748e-05
1.6134159e-05
1.8499904e-05
1.8557341e-05
1.7007513e-05
1.7065575e-05
1.7012549e-05
1.7051965e-05
1.5221271e-05
1.5669805e-05
1.586694e-05
1.5035563e-05
1.5452795e-05
1.6525677e-05
1.5770085e-05
1.6139159e-05
1.470862e-05
1.5507645e-05
1.4869136e-05
1.5346562e-05
1.454918e-05
1.5012676e-05
1.4389387e-05
1.5179519e-05
5.0845535e-05
1.334533e-05
1.3505479e-05
1.3985649e-05
1.4144939e-05
1.3825321e-05
1.3665763e-05
1.5302865e-05
1.5549745e-05
1.510873e-05
1.4938554e-05
1.446242e-05
1.430399e-05
1.4620108e-05
1.4777825e-05
5.6315928e-05
5.4327627e-05
1.4824728e-05
1.4999549e-05
1.6479777e-05
1.6280672e-05
1.5348135e-05
1.5174358e-05
1.6664834e-05
1.6855962e-05
1.4649734e-05
1.4475055e-05
1.5886156e-05
1.6095104e-05
1.6006608e-05
1.5863351e-05
1.738841e-05
1.7441578e-05
1.5522133e-05
1.5694798e-05
1.7214735e-05
1.7036947e-05
1.6005235e-05
1.6111639e-05
1.5832645e-05
1.7351835e-05
1.6752589e-05
1.6810894e-05
1.6421597e-05
1.8228053e-05
0.00047254384
0.0004932004
0.00045776656
0.00014357108
9.8189719e-05
3.0378753e-05
3.1231056e-05
3.7906527e-08
2.595339e-06
1.0025821e-05
1.4936143e-05
1.5072823e-05
1.5111647e-05
1.4963377e-05
1.4554747e-05
1.2243423e-05
1.048899e-05
9.6351049e-06
1.0792592e-05
1.1803234e-05
3.9304037e-05
3.2830434e-05
3.727315e-05
3.6516564e-05
3.1800822e-05
3.569075e-05
3.8020563e-05
1.3564657e-05
1.4627674e-05
1.3764547e-05
1.1548084e-05
1.0023077e-05
1.0974439e-05
3.2577398e-05
3.4631226e-05
9.7407376e-06
8.9473039e-06
1.6724795e-05
1.4238979e-05
1.702197e-05
1.3154042e-05
1.5049799e-05
1.6874165e-05
1.5001552e-05
1.6735303e-05
1.3718796e-05
1.3605716e-05
1.1407245e-05
1.2835705e-05
1.2817608e-05
1.181186e-05