/*--------------------------------*- C++ -*----------------------------------*\
  =========                 |
  \\      /  F ield         | OpenFOAM: The Open Source CFD Toolbox
   \\    /   O peration     | Website:  https://openfoam.org
    \\  /    A nd           | Version:  8
     \\/     M anipulation  |
\*---------------------------------------------------------------------------*/
/*   Windows 32 and 64 bit porting by blueCAPE: http://www.bluecape.com.pt   *\
|  Based on Windows porting (2.0.x v4) by Symscape: http://www.symscape.com   |
\*---------------------------------------------------------------------------*/
FoamFile
{
    version     2.0;
    format      ascii;
    class       scalarListList;
    location    "constant/vegetation";
    object      kcLAIboundary;
}
// * * * * * * * * * * * * * * * * * * * * * * * * * * * * * * * * * * * * * //


5
(

212
(
0
0.023639607
0
0.71835691
0.11947088
0.60491353
1.1431117
1.9614656
1000
1000
1000
1000
0.094546463
0.10039484
0
0
1000
1.6232106
1000
1000
1000
1000
0
1.132511
0.094630668
3.4290299
0
3.4840807
0.11008603
3.4405927
0.16156819
2.0049312
2.613271
0.78074316
2.6422304
0.052371956
0.72016987
0.13765202
3.1573477
1.167107
2.3675185
2.0132854
1.0061837
0.89425952
1.8700665
2.4644279
3.3370952
3.1263273
3.4114766
2.5113915
2.324484
0.82750829
2.3833063
2.9749522
2.4565192
3.0049142
1.4141964
3.5395601
3.2113225
2.9422182
1.6836325
2.7398056
2.5733661
2.9522991
3.1605231
3.0318454
0.051493051
1000
1000
3.2674217
2.3791786
2.9400848
0.7911489
0
0
1000
1000
1000
1000
1000
1000
1000
1000
1000
1000
1000
1000
1000
1000
1000
1000
1000
1000
1000
1000
1000
1000
1000
1000
1000
1000
1000
1000
1000
1000
1000
1000
1000
1000
1000
1000
1000
1000
1000
1000
1000
1000
1000
1000
1000
1000
1000
1000
1000
1000
1000
1000
1000
1000
1000
1000
1000
1000
1000
1000
1000
1000
1000
1000
1000
1000
1000
1000
1000
1000
1000
1000
1000
1000
1000
1000
1000
1000
1000
1000
1000
1000
1000
1000
1000
1000
1000
1000
1000
1000
1000
1000
1000
1000
1000
1000
1000
1000
1000
1000
1000
1000
1000
1000
1000
1000
1000
1000
1000
1000
1000
1000
1000
1000
1000
1000
1000
1000
1000
0.20674268
1.6689047
1.5379196
0.52629847
0.36463947
0.62105025
0.28923022
0.14141207
0.35279239
1.8890737
2.8837306
0.82341467
3.3244358
1.030911
0.75352632
0.43207786
2.3889735
1.1680267
)


212
(
0
0.24361955
0
1000
0
1.8404179
1000
1000
1000
1000
1000
1000
1.1818831
0.23348116
0
0
1000
1000
1000
1000
1000
1000
0
1000
1000
2.8089748
0
2.6686709
2.2565904
3.2787232
1000
1000
0.8399078
0.10813413
0.80502766
1.5843632
0.12507233
0.15864723
2.8670284
2.6746181
1000
3.1260753
2.069445
1000
2.5038743
1.6164778
2.2234518
2.9114047
2.9612002
2.8846836
1.0389459
0.28650841
1.0339336
1.9571357
2.7026187
1000
0.39343881
2.5117596
2.3444456
1000
0.88783992
2.0386349
2.0003896
1000
3.352739
1.7097442
1000
1000
1000
3.4901967
2.9791524
3.5337382
0.24183654
0
0
1000
1000
1000
1000
1000
1000
1000
1000
1000
1000
1000
1000
1000
1000
1000
1000
1000
1000
1000
1000
1000
1000
1000
1000
1000
1000
1000
1000
1000
1000
1000
1000
1000
1000
1000
1000
1000
1000
1000
1000
1000
1000
1000
1000
1000
1000
1000
1000
1000
1000
1000
1000
1000
1000
1000
1000
1000
1000
1000
1000
1000
1000
1000
1000
1000
1000
1000
1000
1000
1000
1000
1000
1000
1000
1000
1000
1000
1000
1000
1000
1000
1000
1000
1000
1000
1000
1000
1000
1000
1000
1000
1000
1000
1000
1000
1000
1000
1000
1000
1000
1000
1000
1000
1000
1000
1000
1000
1000
1000
1000
1000
1000
1000
1000
1000
1000
1000
1000
1000
0.20982594
1.1705493
1000
0.35662205
0.33063008
0.38220013
0.40932466
0.16885306
1000
2.5056448
2.9127555
1.5021479
2.4977475
1.2264259
0.31186707
0.31887816
1.1744429
0.8830427
)


212
(
0
0.41694378
0
1000
0
2.6075225
1000
1000
1000
1000
1000
1000
2.6736246
1.5720897
0
0
1000
1000
1000
1000
1000
1000
0
1000
1000
1000
0
1000
3.0387426
1000
1000
1000
2.1902803
0.33528878
1.2544721
2.4601632
1.1898379
0.026494139
1000
2.7201295
1000
3.0473896
2.5503283
1000
1000
1000
1000
1000
1000
1000
1.9766367
2.7275078
2.3412263
1.9597718
1000
1000
1000
1000
1000
1000
1.2438945
1.6291469
1000
1000
1000
2.0049081
1000
1000
1000
1000
1000
1000
2.1195684
0
0
1000
1000
1000
1000
1000
1000
1000
1000
1000
1000
1000
1000
1000
1000
1000
1000
1000
1000
1000
1000
1000
1000
1000
1000
1000
1000
1000
1000
1000
1000
1000
1000
1000
1000
1000
1000
1000
1000
1000
1000
1000
1000
1000
1000
1000
1000
1000
1000
1000
1000
1000
1000
1000
1000
1000
1000
1000
1000
1000
1000
1000
1000
1000
1000
1000
1000
1000
1000
1000
1000
1000
1000
1000
1000
1000
1000
1000
1000
1000
1000
1000
1000
1000
1000
1000
1000
1000
1000
1000
1000
1000
1000
1000
1000
1000
1000
1000
1000
1000
1000
1000
1000
1000
1000
1000
1000
1000
1000
1000
1000
1000
1000
1000
1000
1000
1000
1000
1000
1000
0.19109995
1000
1000
0.30240592
0.33863123
1000
0.4837072
0.17406261
1000
2.6573173
2.6435882
2.0397642
1000
1.3257052
0.38399836
0.32364897
1.520666
0.68348094
)


212
(
0
0.094111663
0
1000
0
1000
1000
1000
1000
1000
1000
1000
1000
1000
0
0
1000
1000
1000
1000
1000
1000
0
1000
1000
1000
0
1000
1000
1000
1000
1000
1000
0.43847071
1.7367962
1000
1.0867181
0.00035933368
1000
1000
1000
1000
1000
1000
1000
0.057392415
1000
1000
1000
1000
1000
1000
1000
3.4091632
1000
1000
0.0026373992
1000
1000
1000
1000
3.4244805
1000
1000
1000
3.2144423
0
1000
1000
1000
1000
1000
1000
0
0
1000
1000
1000
1000
1000
1000
1000
1000
1000
1000
1000
1000
1000
1000
1000
1000
1000
1000
1000
1000
1000
1000
1000
1000
1000
1000
1000
1000
1000
1000
1000
1000
1000
1000
1000
1000
1000
1000
1000
1000
1000
1000
1000
1000
1000
1000
1000
1000
1000
1000
1000
1000
1000
1000
1000
1000
1000
1000
1000
1000
1000
1000
1000
1000
1000
1000
1000
1000
1000
1000
1000
1000
1000
1000
1000
1000
1000
1000
1000
1000
1000
1000
1000
1000
1000
1000
1000
1000
1000
1000
1000
1000
1000
1000
1000
1000
1000
1000
1000
1000
1000
1000
1000
1000
1000
1000
1000
1000
1000
1000
1000
1000
1000
1000
1000
1000
1000
1000
1000
1000
1000
1000
0.27049851
0.37421853
1000
0.5926823
0.17325389
1000
1000
1000
2.3251449
1000
1.2103206
2.0455028
0.26096168
3.0794285
0.76756218
)


212
(
0
0
0
1000
0
1000
1000
0.045161608
1000
1000
1000
1000
1000
1000
0
0
0.0013258074
0.001168492
1000
1000
1000
1000
0
1000
1000
0.33414615
0
0.37691483
1000
1000
0
1000
2.0679151
0.0092536466
0.92211591
0.56635391
0.26902271
0
0.247531
0.40719249
1000
1000
1000
1000
1000
0
0.16148232
1000
1000
0
1000
2.1194327
1000
1000
1000
0.0088042242
0
1000
1000
0.089858581
1000
1000
1000
1000
1000
1000
0
1000
1000
1.1559312
1000
1000
1000
0
0
1000
1000
1000
1000
1000
1000
1000
1000
1000
1000
1000
1000
1000
1000
1000
1000
1000
1000
1000
1000
1000
1000
1000
1000
1000
1000
1000
1000
1000
1000
1000
1000
1000
1000
1000
1000
1000
1000
1000
1000
1000
1000
1000
1000
1000
1000
1000
1000
1000
1000
1000
1000
1000
1000
1000
1000
1000
1000
1000
1000
1000
1000
1000
1000
1000
1000
1000
1000
1000
1000
1000
1000
1000
1000
1000
1000
1000
1000
1000
1000
1000
1000
1000
1000
1000
1000
1000
1000
1000
1000
1000
1000
1000
1000
1000
1000
1000
1000
1000
1000
1000
1000
1000
1000
1000
1000
1000
1000
1000
1000
1000
1000
1000
1000
1000
1000
1000
1000
1000
1000
0.37920023
1000
0.28891879
0.40296623
1000
0.82229996
0.20140094
1000
1000
1.7777584
1000
1000
1.1703536
1000
0.40522998
1000
1.052191
)

)


// ************************************************************************* //
