/*--------------------------------*- C++ -*----------------------------------*\
  =========                 |
  \\      /  F ield         | OpenFOAM: The Open Source CFD Toolbox
   \\    /   O peration     | Website:  https://openfoam.org
    \\  /    A nd           | Version:  8
     \\/     M anipulation  |
\*---------------------------------------------------------------------------*/
/*   Windows 32 and 64 bit porting by blueCAPE: http://www.bluecape.com.pt   *\
|  Based on Windows porting (2.0.x v4) by Symscape: http://www.symscape.com   |
\*---------------------------------------------------------------------------*/
FoamFile
{
    version     2.0;
    format      ascii;
    class       scalarListList;
    location    "constant/vegetation";
    object      solarLoadFineFaces;
}
// * * * * * * * * * * * * * * * * * * * * * * * * * * * * * * * * * * * * * //


5
(

1222
(
717.08284
717.08284
717.08284
717.08284
717.08284
717.08284
717.08284
717.08284
717.08284
717.08284
228.62421
717.08284
228.62421
717.08284
100.85923
0
0
0
0
0
717.08284
717.08284
717.08284
717.08284
0
0
717.08284
0
0
0
0
0
0
0
0
0
0
0
0
0
717.08284
717.08284
717.08284
717.08284
231.06068
717.08284
717.08284
717.08284
717.08284
141.45488
23.24666
0
22.001501
100.85923
717.08284
22.979412
717.08284
717.08284
96.569231
52.55816
717.08284
52.55816
717.08284
51.057935
717.08284
348.9824
717.08284
717.08284
30.503568
717.08284
231.06068
717.08284
717.08284
67.199975
717.08284
95.765833
262.17381
717.08284
717.08284
231.06068
110.51208
60.993266
60.993266
25.485156
31.46463
22.001501
23.658318
22.979412
95.765833
58.195025
110.51208
95.765833
31.46463
70.15502
717.08284
717.08284
717.08284
717.08284
66.147366
36.606989
36.606989
51.057935
717.08284
717.08284
717.08284
228.62421
228.62421
67.199975
67.199975
717.08284
717.08284
717.08284
717.08284
717.08284
717.08284
61.477556
35.526439
174.33783
141.45488
22.001501
20.814113
23.658318
96.569231
28.900788
37.82511
223.2036
95.765833
717.08284
61.477556
61.477556
31.46463
133.16099
133.16099
717.08284
46.31129
46.31129
58.195025
58.195025
30.503568
54.697897
54.697897
54.697897
28.900788
54.697897
67.199975
67.199975
37.445715
20.814113
20.814113
22.001501
23.658318
28.900788
23.658318
23.658318
23.658318
30.406861
30.406861
22.979412
31.46463
61.477556
30.406861
70.15502
70.15502
70.15502
36.606989
34.582438
34.582438
46.31129
46.31129
36.606989
717.08284
717.08284
717.08284
37.445715
37.445715
96.569231
28.900788
37.445715
28.900788
37.82511
37.82511
20.814113
717.08284
717.08284
717.08284
717.08284
717.08284
717.08284
717.08284
717.08284
717.08284
717.08284
717.08284
717.08284
717.08284
717.08284
174.33783
717.08284
717.08284
717.08284
100.85923
0
0
0
0
0
0
0
0
0
0
0
0
717.08284
717.08284
717.08284
717.08284
0
610.10019
0
717.08284
717.08284
717.08284
0
0
0
0
0
0
0
0
0
0
0
0
23.24666
23.24666
23.24666
717.08284
60.993266
60.993266
100.85923
37.82511
37.82511
22.979412
30.406861
27.324116
96.569231
293.22254
293.22254
52.55816
52.55816
52.55816
717.08284
717.08284
717.08284
52.55816
34.582438
34.582438
328.47089
51.057935
51.057935
51.057935
717.08284
624.86733
58.195025
717.08284
27.324116
30.503568
30.503568
717.08284
223.2036
223.2036
66.420967
391.61446
95.765833
717.08284
717.08284
66.420967
110.51208
110.51208
717.08284
25.485156
25.485156
25.485156
37.905892
37.905892
37.905892
27.324116
27.324116
37.905892
66.420967
66.420967
110.51208
66.420967
66.420967
66.420967
717.08284
717.08284
717.08284
717.08284
717.08284
717.08284
66.147366
66.147366
66.147366
35.526439
35.526439
35.526439
717.08284
717.08284
0
0
0
717.08284
717.08284
717.08284
717.08284
717.08284
717.08284
717.08284
717.08284
717.08284
717.08284
717.08284
717.08284
0
0
0
0
0
0
0
0
0
0
0
0
0
0
0
0
0
0
0
0
0
0
0
0
0
0
0
0
0
0
0
0
0
0
0
0
0
0
0
0
0
0
0
0
0
0
0
0
0
0
0
0
0
0
0
0
0
0
0
0
0
0
0
0
0
0
0
0
0
0
0
0
0
0
0
0
0
0
0
0
0
0
0
0
0
0
0
0
0
0
0
0
0
0
0
0
0
0
0
0
0
0
0
0
0
0
0
0
0
0
0
0
0
0
0
0
0
0
0
534.0289
0
0
0
0
152.80941
36.381633
0
53.446208
16.815315
13.82137
430.09764
182.06352
116.08352
703.36553
649.01427
732.35905
15.65631
167.83421
162.80915
61.3574
164.3904
0
75.588754
271.46809
119.38754
267.35771
123.97694
0
0
0
0
0
281.26223
0
0
0
0
0
0
0
0
0
0
0
0
0
0
113.42674
13.523986
0
0
0
634.22181
731.38925
506.5089
638.55553
752.25692
519.2859
428.29647
574.12014
287.56403
456.35809
241.55253
42.11984
90.635845
226.16323
44.473822
196.04681
181.58842
133.21535
181.0134
117.84758
123.32508
52.985166
10.646381
44.166068
89.752351
44.144686
88.089783
48.146726
18.546888
125.12846
127.92981
153.54154
0
0
77.559992
66.177146
210.62443
0
0
40.62403
0
0
95.97686
0
117.84495
186.96086
117.855
40.615791
186.94577
0
82.031344
0
392.09395
442.56551
493.47351
0
0
0
0
592.45222
547.50084
0
129.74299
0
2.0536251
0.23736245
0
0
0
0
74.948472
119.19273
0
4.4469381
0
0
0
301.1423
304.39723
277.74394
190.90094
0
211.33198
0
0
0
0
171.68812
129.73246
71.576188
104.50945
85.27939
0
284.87142
254.60948
411.35568
228.09418
205.46897
0
0
0
113.96461
98.95137
182.0765
184.23402
182.05796
173.93157
116.08502
124.42913
0
0
0
0
0
677.3689
692.78027
710.57025
414.112
557.43649
545.20384
692.30389
680.2851
733.15332
360.08256
0
0
0
0
0
0
0
0
0
0
0
0
0
0
0
0
0
0
0
0
0
0
0
0
0
0
0
0
0
0
0
0
0
0
0
0
0
76.072588
60.733997
0
69.391316
0
0
28.489733
0
99.801109
80.594262
70.59085
78.264051
71.569184
71.570522
20.649749
46.885
0
78.262909
64.232403
0
0
78.259278
0
89.916055
1.6172175
78.269544
21.39775
90.765084
13.991459
0
0
0
0
0
0
688.39064
715.53086
741.66665
517.6541
474.14725
510.55877
472.56674
296.84549
719.70088
654.91262
627.42234
633.44129
454.03049
216.28688
479.99691
353.03468
350.9231
534.40029
544.85777
294.96271
490.29948
496.69635
221.58046
0
0
98.604433
80.793581
222.36192
0
0
0
0
0
0
0
0
0
0
0
0
0
0
0
0
40.618659
0
0
0
0
0
44.358908
94.288809
0
0
0
0
124.28613
259.39509
333.33709
333.32288
187.70227
327.24322
123.26664
117.83582
54.058396
40.622565
63.45975
186.95585
186.96848
0
0
195.68934
235.81802
43.713633
71.585839
49.616709
31.198037
0
0
0
0
0
0
0
0
477.48605
476.00493
0
0
0
0
0
0
0
0
0
0
0
341.47689
386.68004
506.32751
358.7146
307.10237
0
0
0
0
196.53954
55.713677
0
182.57545
0
0
363.73963
235.32328
218.80008
0
0
0
0
145.3308
81.155545
247.01369
0
0
0
0
0
0
370.78452
333.32634
333.33081
375.21073
45.439014
0
175.20713
28.87437
70.562109
98.599443
30.619154
40.629339
83.021931
86.864582
53.721939
65.346295
40.60443
63.342093
40.613893
0
271.54406
308.05222
267.3443
230.34576
333.34091
187.46764
333.23171
188.64694
0
0
0
0
0
0
50.39132
26.468586
0
0
0
0
0
0
0
0
0
0
0
355.08654
0
0
0
0
28.490835
0
0
0
0
108.27636
16.338361
214.4843
31.768242
0
225.8602
241.35333
572.38951
660.55131
54.80821
37.876304
121.53068
117.84512
186.95178
186.96839
54.165812
36.14061
186.96093
20.025848
186.967
9.4487375
12.813817
17.748293
17.772427
14.140732
48.076777
42.986294
20.153333
71.76587
0
81.572768
81.576703
109.15839
20.024328
111.31318
0
47.164987
71.800797
120.25581
0
0
0
0
0
0
0
0
0
55.391076
486.20312
492.18545
0
569.02735
542.14771
640.05044
597.17169
596.92121
664.51863
71.388274
98.592614
87.10135
111.226
0
77.331371
0
0
0
0
0
0
0
0
0
0
0
210.13788
109.74017
0
0
0
0
4.4273019
189.2197
9.1640142
0
203.96646
397.70272
318.06805
381.39324
547.2838
199.6813
187.15668
306.35208
0
0
0
0
0
0
0
340.39403
347.48405
485.80756
0
0
0
0
224.9584
375.12119
355.62114
244.93978
430.34011
441.08403
0
121.22674
29.20019
0
0
0
696.09584
522.19604
371.3867
554.06485
599.76464
598.77025
648.05041
419.34636
361.33387
220.04067
209.75199
244.94127
244.93274
0
0
0
51.909682
254.45444
0
0
0
0
2.0325154
0
0
0
0
0
0
0
0
0
0
0
0
0
0
0
0
0
0
0
0
0
0
0
0
0
0
0
0
0
0
0
0
0
0
0
0
0
0
0
0
0
0
0
28.491756
28.490222
0
0
0
0
0
0
21.449383
25.588709
67.364732
4.123717
35.788022
60.738629
49.92187
37.964044
51.114489
37.299115
46.878909
0
0
0
0
0
0
0
0
0
0
0
0
14.06554
28.402252
1.2253228
2.315364
0
93.09705
0
0
0
0
0
0
679.9389
699.42622
338.83283
408.85306
420.58518
686.08892
575.7526
649.46477
668.04204
704.39206
744.03329
743.4837
736.23877
664.42126
427.39943
418.07183
428.30112
202.51219
202.70767
425.46496
422.4749
440.40494
300.62764
293.76963
449.72701
239.3853
361.29094
244.86339
367.9829
98.600587
0
0
0
108.08161
244.93416
0
0
0
0
0
0
0
0
0
0
0
0
0
0
0
0
0
44.351012
0
16.821344
39.177796
0
269.96643
267.34479
272.04631
279.22752
427.35851
290.40598
332.09861
124.65243
176.34873
0
46.080572
233.3865
125.24182
194.49494
48.394564
197.20195
229.38223
209.77584
0
0
0
0
18.760553
69.426004
91.186604
0
0
0
0
551.87256
594.74722
240.93413
381.60055
229.9274
351.11086
337.68106
512.75429
365.48424
374.85454
377.5255
0
0
0
0
601.29927
514.533
0
0
485.81234
0
0
431.70612
430.49234
488.51969
0
0
414.11434
)


1222
(
585.76158
585.76158
459.11159
585.76158
585.76158
585.76158
0
0
0
585.76158
0
0
0
92.990278
0
0
0
0
0
0
585.76158
585.76158
585.76158
585.76158
0
0
0
0
0
0
0
0
0
0
0
0
0
0
0
0
585.76158
585.76158
585.76158
585.76158
0
0
0
0
0
0
35.301945
585.76158
40.619244
0
61.333271
22.069347
0
0
0
585.76158
61.333271
585.76158
585.76158
585.76158
120.12702
585.76158
585.76158
585.76158
33.310893
40.37839
0
0
0
0
92.990278
25.708908
73.955817
0
0
0
47.896314
116.33047
116.33047
63.399822
31.864998
40.619244
30.317122
22.069347
25.708908
32.727943
47.896314
25.708908
31.864998
585.76158
585.76158
585.76158
585.76158
585.76158
585.76158
82.746122
82.746122
585.76158
585.76158
73.955817
0
0
0
0
0
585.76158
585.76158
179.65346
585.76158
585.76158
585.76158
39.263454
0
395.23244
0
40.619244
47.520122
30.317122
0
56.174743
0
40.37839
25.708908
61.333271
39.263454
39.263454
31.864998
585.76158
585.76158
585.76158
76.269868
76.269868
32.727943
32.727943
33.310893
79.24333
79.24333
79.24333
56.174743
79.24333
0
0
0
47.520122
47.520122
40.619244
30.317122
56.174743
30.317122
30.317122
30.317122
20.494854
20.494854
22.069347
31.864998
39.263454
20.494854
585.76158
585.76158
585.76158
82.746122
105.97134
105.97134
76.269868
76.269868
82.746122
585.76158
585.76158
585.76158
0
0
0
56.174743
0
56.174743
0
0
47.520122
585.76158
585.76158
585.76158
585.76158
585.76158
585.76158
585.76158
585.76158
585.76158
585.76158
0
0
0
0
395.23244
395.23244
0
0
0
0
0
0
0
0
0
0
0
0
0
0
0
585.76158
585.76158
585.76158
585.76158
0
0
0
0
0
0
0
0
0
0
0
0
0
0
0
0
0
0
35.301945
35.301945
35.301945
585.76158
585.76158
116.33047
0
0
0
22.069347
20.494854
17.862725
0
0
0
585.76158
585.76158
585.76158
61.333271
585.76158
61.333271
252.90276
105.97134
105.97134
585.76158
261.87969
585.76158
585.76158
585.76158
499.82879
32.727943
585.76158
17.862725
33.310893
33.310893
40.37839
40.37839
40.37839
29.77772
92.990278
25.708908
73.955817
73.955817
29.77772
47.896314
47.896314
47.896314
63.399822
63.399822
63.399822
17.101645
17.101645
17.101645
17.862725
17.862725
17.101645
29.77772
29.77772
47.896314
29.77772
29.77772
29.77772
585.76158
585.76158
585.76158
585.76158
585.76158
585.76158
585.76158
585.76158
585.76158
0
0
0
585.76158
585.76158
0
0
0
120.12702
585.76158
120.12702
585.76158
585.76158
585.76158
0
0
0
585.76158
585.76158
585.76158
0
0
0
0
0
0
0
0
0
0
0
0
0
0
0
0
0
0
0
0
0
0
0
0
0
0
0
0
0
0
0
0
0
0
0
0
0
0
0
0
0
0
0
0
0
0
0
0
0
0
0
0
0
0
0
0
0
0
0
0
0
0
0
0
0
0
0
0
0
0
0
0
0
0
0
0
0
0
0
0
0
0
0
0
0
0
0
0
0
0
0
0
0
0
0
0
0
0
0
0
0
0
0
0
0
0
0
0
0
0
0
0
0
0
0
0
0
0
0
552.22557
0
0
0
0
239.92292
16.327649
0
1.6181381
96.167595
100.50646
485.20535
3.2590912
36.737279
627.88472
577.82317
650.98947
0
259.07866
261.3476
35.791751
0
0
0
375.58238
258.45413
372.02426
262.37787
0
0
0
0
0
88.443822
0
0
0
0
0
0
0
0
0
0
0
0
0
0
27.189726
90.171755
0
0
0
447.03435
612.49529
475.25862
447.05469
630.41184
356.03974
287.19764
374.52211
101.62492
282.75296
79.481898
0
231.35191
335.9835
185.12109
301.68814
287.66249
224.7441
290.79791
257.19906
178.66714
0
0
126.14038
231.18736
184.84567
157.23677
184.68425
160.95105
0
0
0
0
0
213.48644
203.61664
322.11627
0
120.94208
190.46555
137.65145
84.878121
236.45914
107.45141
257.19712
310.00475
257.20498
190.45968
309.99274
137.65973
225.56225
0
451.0162
485.26987
533.7768
0
0
0
0
570.45935
560.37715
0
222.59958
0
41.823125
58.975993
0
0
0
0
143.83163
66.622237
0
6.7669309
0
0
0
348.55603
349.82373
318.45483
105.09026
0
323.78809
7.6922896
0
87.820978
50.173915
271.63008
222.589
138.20824
163.836
156.84061
0
316.37718
278.92188
472.10158
39.711076
17.89478
0
0
0
0
0
3.2513861
1.9642695
0
0
0
32.548488
0
0
0
0
0
633.2063
635.17277
620.87036
212.69723
550.60502
536.57944
605.71342
636.86193
637.75606
417.9318
0
0
0
0
0
0
0
0
0
0
0
0
0
0
0
0
0
0
0
0
0
0
0
0
0
0
0
0
0
0
0
0
0
0
0
0
0
0
0
0
0
0
0
0
0
34.535878
171.08562
137.71005
50.044372
138.19932
138.20251
55.721075
12.262967
0
50.042834
12.277947
0
0
50.040111
0
86.463804
1.4153423
50.049008
51.512596
87.425222
11.663236
0
0
0
0
0
0
517.84367
599.85164
596.19877
512.25394
459.34287
497.50643
440.96649
318.84212
554.47068
477.03867
484.68371
461.50698
400.20834
207.66674
359.22327
152.8051
150.60598
335.63858
346.78375
107.70418
301.96235
308.19363
80.750347
106.3462
111.53188
218.78058
216.69396
331.24953
46.81553
0
31.551623
0
31.328483
29.412526
65.520595
0
0
0
0
0
4.9125812
4.9083572
0
83.681916
190.46226
32.83761
141.43798
94.656732
89.577849
99.907134
185.06685
235.6995
82.699866
67.503255
126.35369
65.518345
262.69572
365.96652
422.43563
422.42554
310.65983
417.82008
261.81741
257.18952
201.69279
190.46493
209.71789
310.0003
310.01038
148.25288
140.18046
302.15585
345.80745
84.03286
138.21639
18.020731
70.160532
0
0
0
0
0
0
0
0
447.41314
465.741
0
0
0
0
0
0
0
0
0
0
0
424.76109
450.5359
542.63304
441.53504
402.10508
0
0
0
0
101.63513
32.291049
0
102.04354
0
0
423.26786
328.29575
324.56098
0
0
0
0
236.20848
154.79481
296.5946
17.734013
44.35846
21.920615
7.8893429
44.360895
0
449.73541
422.42804
422.43093
445.30649
0
0
0
0
0
0
0
0
2.7422182
6.5323572
43.821216
0
0
0
0
0
375.64016
402.15388
372.01471
336.01154
422.43865
310.45433
422.35017
311.36596
0
0
0
0
0
0
0
69.025486
0
0
0
0
0
0
0
0
0
0
0
154.33564
0
0
0
0
0
0
0
0
0
166.04505
52.544905
206.95122
60.166212
0
227.7912
251.8066
485.45111
559.9546
0
177.59282
177.73151
0
211.52924
310.01022
0
0
0
0
211.53756
0
0
0
94.362856
100.66477
51.834732
0
87.388985
0
0
0
0
0
0
0
0
0
0
0
0
0
0
0
101.15022
77.336052
100.90606
80.647956
12.268706
13.109621
529.80556
533.73698
0
563.59926
555.07179
618.68575
597.65789
596.92957
631.34165
0
0
0
0
0
143.02874
0
0
0
0
0
0
0
0
0
0
0
82.506715
46.516831
0
0
0
0
6.7803131
142.57078
34.877735
0
150.34808
303.05724
217.43844
178.95702
345.87242
89.080164
269.89685
352.9123
0
29.090204
0
65.525543
85.50189
52.576128
3.6706849
427.79479
433.02245
529.54825
38.767856
43.506258
44.102537
0
332.19169
439.01059
433.0258
338.31854
487.60952
494.92503
0
0
0
0
0
0
628.38508
540.62048
426.1021
564.25449
588.32211
587.09264
623.13122
475.52614
423.62914
328.93929
0
0
338.31277
0
0
0
0
278.33628
0
0
0
0
41.835713
0
0
0
0
0
0
0
0
0
0
0
0
0
0
0
0
0
0
0
0
0
0
0
0
0
0
0
0
0
0
0
0
0
0
0
0
0
0
0
0
0
0
0
0
0
0
0
0
0
0
0
59.877967
68.745484
36.081952
0
0
0
13.462999
71.517085
4.7138175
43.583076
12.272162
0
0
0
0
0
0
0
0
0
0
0
0
13.074656
58.261977
22.578931
10.549338
0
99.68397
0
0
0
0
0
0
515.47341
557.25379
389.78957
425.8763
393.17575
592.17844
475.19035
527.31543
533.08951
541.19712
635.37031
598.53712
586.92573
510.36495
349.30288
340.81348
377.22798
165.46671
165.88338
298.02938
317.09382
282.78644
112.56064
111.37259
271.33973
84.385429
220.6365
83.384964
199.24673
218.77937
82.348799
86.941592
75.358492
226.99211
338.31447
0
0
0
0
0
0
0
10.272916
78.721549
55.318441
55.322943
35.640994
55.32276
29.381462
0
0
0
185.06023
100.66039
160.64018
180.5745
76.327779
374.44275
372.01469
376.02304
381.0242
483.85625
389.77156
421.4572
262.75886
301.83867
145.47602
186.22304
338.35132
219.17166
300.8064
188.63574
303.16417
326.75967
318.72751
2.2139387
12.269751
91.549966
0.10178048
61.952665
137.12988
183.41059
0
0
0
0
548.51515
585.82346
259.27378
367.82535
238.32885
405.82106
383.98044
514.96876
424.12973
442.28017
446.67837
0
0
0
0
405.57169
312.00186
2.1333757
18.284448
529.55134
0
0
488.51556
487.827
527.15483
0
0
212.70028
)


1222
(
536.2201
536.2201
536.2201
536.2201
536.2201
536.2201
0
536.2201
0
39.528511
0
536.2201
0
39.528511
0
0
0
0
0
0
37.000081
111.32513
536.2201
536.2201
0
0
0
0
0
0
0
0
0
0
0
0
0
0
0
0
536.2201
536.2201
536.2201
536.2201
0
0
0
0
0
0
0
536.2201
0
0
25.682302
0
0
0
0
59.995191
25.682302
59.995191
536.2201
152.94412
45.804462
163.156
536.2201
536.2201
0
35.318793
0
0
0
0
39.528511
25.461184
41.855216
0
0
0
0
0
0
0
0
0
0
0
25.461184
0
0
25.461184
0
74.284923
35.05916
111.32513
35.05916
35.05916
51.589513
75.548355
536.2201
536.2201
536.2201
41.855216
0
0
0
0
0
37.000081
37.000081
37.000081
536.2201
536.2201
536.2201
0
0
0
0
0
0
0
0
0
0
35.318793
25.461184
25.682302
0
0
0
536.2201
154.57049
536.2201
105.15104
536.2201
0
0
0
0
0
0
0
0
0
0
0
0
0
0
0
0
0
0
0
0
0
0
0
0
0
74.284923
74.284923
74.284923
75.548355
536.2201
72.214194
536.2201
105.15104
75.548355
163.156
163.156
35.05916
0
0
0
0
0
0
0
0
0
536.2201
536.2201
536.2201
536.2201
536.2201
536.2201
536.2201
536.2201
536.2201
536.2201
0
0
0
0
0
536.2201
0
0
0
0
0
0
0
0
0
0
0
0
0
0
0
111.32513
536.2201
536.2201
536.2201
0
0
0
0
0
0
0
0
0
0
0
0
0
0
0
0
0
0
0
0
0
536.2201
0
0
0
0
0
0
0
0
0
0
0
59.995191
59.995191
59.995191
25.682302
25.682302
25.682302
59.995191
536.2201
72.214194
536.2201
152.94412
536.2201
152.94412
536.2201
522.19996
0
536.2201
0
0
0
35.318793
35.318793
35.318793
0
39.528511
25.461184
41.855216
41.855216
0
0
0
0
0
0
0
0
0
0
0
0
0
0
0
0
0
0
0
64.391157
64.391157
35.05916
64.391157
64.391157
64.391157
51.589513
51.589513
51.589513
0
0
0
536.2201
536.2201
0
0
0
45.804462
45.804462
45.804462
536.2201
163.156
536.2201
536.2201
0
0
536.2201
536.2201
536.2201
0
0
0
0
0
0
0
0
0
0
0
0
0
0
0
0
0
0
0
0
0
0
0
0
0
0
0
0
0
0
0
0
0
0
0
0
0
0
0
0
0
0
0
0
0
0
0
0
0
0
0
0
0
0
0
0
0
0
0
0
0
0
0
0
0
0
0
0
0
0
0
0
0
0
0
0
0
0
0
0
0
0
0
0
0
0
0
0
0
0
0
0
0
0
0
0
0
0
0
0
0
0
0
0
0
0
0
0
0
0
0
0
0
0
0
0
0
0
0
624.61261
0
0
0
0
351.49508
46.98128
0
28.566044
0
0
589.5567
105.36437
129.13638
625.38324
582.66925
649.02621
0
375.75619
384.15955
0
0
0
0
421.47296
0
0
342.37266
0
0
0
0
0
46.493835
0
0
0
0
0
0
0
0
0
0
0
0
0
0
108.31663
0
0
0
0
327.06178
570.05985
507.00465
325.71243
591.38857
256.44568
201.71717
238.28054
29.535126
165.71289
29.920925
0
0
0
0
320.30129
0
250.23101
0
0
0
0
0
0
0
0
0
0
0
0
0
0
0
0
352.2572
342.55281
451.6197
0
283.89668
340.73523
300.3374
41.252787
389.199
271.08948
409.77255
450.1663
409.77944
340.7311
450.15563
300.34516
379.69941
0
0
570.69112
625.93055
0
0
0
0
607.40744
628.9455
0
337.3468
0
75.857159
108.85486
0
0
0
0
230.97176
0
0
7.4292895
0
0
0
436.68452
436.3917
398.22995
51.560778
0
454.57417
123.01222
0
51.293544
6.4159033
396.44263
337.33521
222.876
244.79737
247.53182
0
388.11773
340.97608
580.10451
77.319981
0
0
0
0
0
0
105.35703
104.10866
0
0
0
126.08956
0
0
0
0
0
660.49417
650.21776
604.65938
55.309516
609.08547
592.61716
598.68756
665.89955
624.14284
520.36629
0
0
0
0
0
0
0
0
0
0
0
0
0
0
0
0
0
0
0
0
0
0
0
0
0
0
0
0
0
0
0
0
0
0
0
0
0
0
0
0
0
0
0
0
0
114.40966
279.08509
222.74376
9.8807813
222.86457
222.86965
104.78435
0
0
9.8788148
72.235575
0
0
9.8770768
0
73.400092
10.474155
9.8844887
95.813977
74.486057
23.192758
0
0
0
0
0
0
419.9046
558.02846
530.03797
569.25434
504.00949
546.83453
469.4223
382.65904
468.89934
373.83711
416.57814
363.16366
405.35493
234.04104
299.87207
4.270308
5.9044214
197.81879
210.78731
26.200227
172.14512
178.83699
18.992619
234.45402
256.63435
342.42066
355.8967
459.45664
99.17355
128.79096
122.82686
1.2815131
120.23177
195.91576
225.19089
42.180335
0
0
10.686555
12.404259
170.91349
170.90947
163.85375
237.73488
340.73376
198.76242
303.80875
57.141652
47.775777
63.573457
334.62688
388.97406
239.39557
226.78469
289.17257
225.18857
414.77227
501.97503
545.53583
545.52848
450.84601
541.63482
413.97574
409.76568
351.27453
340.73547
359.04871
450.16167
450.17066
310.32927
302.63249
434.5444
483.45114
140.58981
222.88368
114.23587
124.10829
0
0
0
0
0
0
0
0
477.7741
514.86497
0
0
0
0
0
0
0
0
0
0
0
541.539
551.46732
632.67439
463.97386
439.08149
0
0
0
0
39.397049
91.840489
0
53.006459
0
0
527.44346
452.09681
457.99242
0
0
0
0
350.55345
247.04817
381.89617
91.688959
2.7419201
83.732567
122.50405
2.7349554
0
468.34363
450.63538
450.63669
0
0
0
0
0
0
0
0
0
0
0
0
0
0
0
0
0
421.51227
438.68764
418.78104
388.32967
450.64218
0
450.57192
372.88309
0
0
0
0
0
0
0
0
0
0
0
0
0
0
0
0
0
0
0
3.7048825
0
0
0
0
0
0
0
0
0
245.89244
102.26583
234.20987
103.87242
0
265.43231
299.24469
468.73266
537.07486
0
0
0
0
0
0
0
0
0
0
0
0
0
0
0
0
0
0
0
0
0
0
0
0
0
0
0
0
0
0
0
70.45258
46.722412
7.2955549
232.56412
201.61672
232.39718
205.08624
112.17207
112.1921
625.30244
627.94784
0
614.99721
622.73563
667.69992
662.16457
662.12812
669.32049
0
0
0
0
0
227.37626
0
0
0
0
0
0
0
0
0
0
0
8.7087206
0
0
0
0
0
7.4433657
128.47645
52.101962
0
130.81025
262.08223
162.25432
19.043343
205.17284
7.826088
380.53565
440.70387
27.076126
123.35796
46.091953
225.19579
46.432586
11.106472
131.73324
550.11217
554.31392
625.14567
15.864058
0.018278616
0.26131833
0
0
0
0
0
593.57638
598.63356
0
0
0
0
0
0
632.9209
619.18149
526.59999
637.2883
644.99107
643.52477
669.21995
580.28098
530.04452
0
0
0
0
0
0
0
0
339.96356
0
0
0
0
75.868723
0
0
0
0
0
0
0
0
0
0
0
0
0
0
0
0
0
0
0
0
0
0
0
0
0
0
0
0
0
0
0
0
0
0
0
0
0
0
0
0
0
0
0
0
0
0
0
0
0
0
0
125.13637
146.08257
107.3488
0
0
0
112.18149
120.89991
96.83264
0
0
0
0
0
0
0
0
0
0
0
0
0
0
25.940962
103.04577
37.166563
9.9909964
0
97.734625
0
0
0
0
0
0
421.68292
487.12801
484.374
494.97844
420.98028
577.69201
445.2365
482.06202
476.35382
457.48911
609.33018
535.86622
519.5444
433.59734
327.88009
319.3189
382.65924
162.3465
163.00362
226.41107
267.72232
181.20978
23.377966
20.526095
148.39798
22.309273
128.65177
26.880589
78.112914
342.4219
211.07956
219.60909
212.16501
350.47297
451.84715
37.238982
86.72437
0
62.215015
46.429682
15.645497
0
175.94545
232.44847
209.46897
209.47324
191.85627
209.47254
195.1543
0
0
0
334.62071
232.06864
310.61117
330.30134
235.38967
509.29023
506.96782
510.59035
514.36446
589.17563
521.7265
544.63715
414.74983
443.33718
307.70857
335.45129
472.06993
334.49275
432.97486
338.12157
435.23742
453.90679
454.16479
98.198885
112.17119
217.60183
98.249464
118.72305
222.60442
294.01617
0
0
0
0
609.76025
644.43543
314.28266
405.21167
282.66044
504.77977
474.2109
578.59915
527.65745
545.48765
552.37373
0
0
0
0
274.65048
165.18903
137.826
86.145282
625.14746
0
0
594.17902
593.84326
620.62181
0
0
55.313198
)


1222
(
411.8157
411.8157
411.8157
411.8157
411.8157
411.8157
0
411.8157
0
0
0
411.8157
0
0
0
0
0
0
0
0
0
0
411.8157
411.8157
411.8157
0
0
0
0
0
0
0
0
0
0
0
0
0
0
0
411.8157
411.8157
411.8157
411.8157
0
0
0
0
0
0
0
411.8157
0
0
0
0
0
0
0
0
0
0
411.8157
72.514006
0
138.91439
411.8157
411.8157
0
0
0
0
0
0
0
0
0
0
0
0
0
388.84605
388.84605
0
0
0
0
0
0
0
0
0
0
0
0
0
0
0
0
13.618276
13.618276
72.514006
0
0
0
0
0
0
0
0
0
0
411.8157
411.8157
411.8157
0
0
410.73101
0
0
0
0
0
0
0
0
0
0
0
0
0
0
0
0
13.41127
13.41127
0
0
0
0
0
0
0
0
0
0
0
0
0
0
0
0
0
0
0
0
0
0
0
0
0
0
0
0
13.618276
16.545822
16.545822
13.41127
13.41127
13.618276
138.91439
138.91439
0
0
0
0
0
0
0
0
0
0
411.8157
411.8157
411.8157
411.8157
411.8157
411.8157
411.8157
411.8157
411.8157
411.8157
0
0
0
411.8157
411.8157
411.8157
0
0
0
0
0
0
0
0
0
0
0
0
0
0
0
0
411.8157
411.8157
411.8157
0
411.8157
411.8157
411.8157
411.8157
0
0
0
0
0
0
0
0
0
0
0
0
0
0
0
0
411.8157
411.8157
411.8157
0
0
0
0
0
0
0
0
0
0
0
0
0
0
0
0
16.545822
16.545822
411.8157
72.514006
72.514006
72.514006
0
411.8157
411.8157
411.8157
0
0
0
0
0
0
0
0
0
0
0
0
0
0
0
0
0
0
0
0
0
0
0
0
0
0
0
0
0
0
0
0
0
0
0
0
0
0
0
0
0
0
411.8157
411.8157
0
0
0
0
0
0
411.8157
411.8157
411.8157
411.8157
411.8157
411.8157
411.8157
411.8157
411.8157
0
0
0
0
0
0
0
0
0
0
0
0
0
0
0
0
0
0
0
0
0
0
0
0
0
0
0
0
0
0
0
0
0
0
0
0
0
0
0
0
0
0
0
0
0
0
0
0
0
0
0
0
0
0
0
0
0
0
0
0
0
0
0
0
0
0
0
0
0
0
0
0
0
0
0
0
0
0
0
0
0
0
0
0
0
0
0
0
0
0
0
0
0
0
0
0
0
0
0
0
0
0
0
0
0
0
0
0
0
0
0
0
0
0
0
0
0
0
0
0
0
0
0
0
315.65151
59.471307
0
40.741906
0
0
0
0
0
526.10681
505.25263
549.79343
0
334.67391
344.19678
0
0
0
0
0
0
0
0
0
0
0
0
0
0
0
0
0
0
0
0
0
0
0
0
0
0
0
0
0
0
0
0
0
160.92111
441.00189
469.11847
160.76764
466.25589
128.86127
97.657804
72.260083
0
34.67391
0
0
0
0
0
381.39463
0
308.94212
0
0
0
0
0
0
0
0
0
0
0
0
0
0
0
0
55.344001
419.7821
504.19722
6.5565955
51.638973
55.702896
53.245361
26.204643
479.7797
50.311969
495.79474
514.79842
495.7998
55.702689
514.79055
53.24613
472.92139
0.084139452
0
0
619.33051
0
0
0
0
546.96892
597.27427
0
308.76262
0
86.586879
128.96058
0
0
0
0
221.11502
0
0
1.7482173
0
0
0
353.78469
461.99244
323.33366
3.0652911
0
508.17091
114.68642
3.6211453
28.164845
102.37081
463.1376
404.6591
280.66768
295.75528
307.0653
1.3771198
407.79896
359.12835
599.68515
0
0
0
0
0
0
0
0
0
0
0
0
0
0
0
0
0
0
585.87119
564.89691
495.02296
0
578.65901
562.93888
506.33476
592.80161
519.55627
0
0
0
0
0
0
0
0
0
0
0
0
0
0
0
0
0
0
0
0
0
0
0
0
0
0
0
0
0
0
0
0
0
0
0
0
0
0
0
0
0
0
0
0
0
0
0
266.68902
280.89455
55.405755
280.65569
280.66174
147.35159
200.84961
156.86143
55.408456
157.63936
55.411812
0
55.409021
55.412671
38.048265
32.436804
55.402983
135.24288
39.074752
42.369136
0
0
0
0
0
0
260.62765
430.53926
385.73635
544.68647
479.01083
518.93477
434.69337
395.79025
317.61451
221.72274
294.63231
218.49873
358.63055
235.1573
206.46226
0
0
38.115209
50.897868
0
26.212345
32.28149
80.729452
40.805712
45.597198
403.47793
431.58822
509.6423
31.499763
12.423219
34.287363
6.7401759
33.825913
42.279828
45.044309
8.0497683
4.7883227
3.2903817
7.3916016
7.47785
13.98571
39.328589
13.629009
44.787065
55.703001
42.399003
53.561129
22.577159
20.423257
5.3753178
432.37669
479.90684
358.08622
45.181572
52.18709
45.044049
499.32556
559.01057
580.36715
580.36368
515.42852
577.64354
498.77514
495.78978
338.24877
55.703049
343.22921
514.79411
514.80079
54.275787
53.443677
501.37667
545.56444
184.77145
280.67374
199.24034
168.34468
1.9748972
1.7245903
5.1962111
3.5107319
5.4882137
1.2082192
5.6194509
0.42840558
443.48337
492.2684
0
0
0
0
0
0
0
0
0
0
0
569.57537
0
0
0
0
0
0
0
0
10.922451
124.07989
0
8.7330324
0
0
0
388.05305
0
0
0
0
0
415.40182
308.09559
415.19863
214.37989
116.81235
209.47193
246.6335
116.80543
0
0
0
0
0
0
0
0
0
0
0
0
0
0
0
0
0
0
0
0
0
0
0
0
0
0
0
0
0
0
0
0
0
0
0
0
0
0
0
0
0
0
0
0
0
0
0
0
0
0
0
0
0
0
0
0
0
0
295.64557
145.83523
236.14642
141.51651
0
272.39878
310.2041
389.94839
440.17355
0
0
0
0
0
0
0
0
0
0
0
0
0
0
0
0
0
0
0
0
0
0
0
0
0
0
0
0
0
0
0
8.2174337
8.0613724
7.3376208
331.15932
298.68719
331.08586
301.76427
200.85625
200.12445
0
0
0
567.74555
0
615.71962
624.34858
626.10389
604.70596
0
0
0
0
0
216.82555
0
0
0
0
0
0
0
0
0
0
0
63.432929
0
0
0
0
0
1.730343
106.88167
51.156258
0
103.55039
193.14733
94.978792
0
40.068867
38.378231
437.21812
466.7231
7.7464067
34.177099
8.9001938
45.04484
39.98621
69.023744
253.65417
583.64269
586.28876
622.76584
127.65696
110.08688
112.35812
4.4940399
0
0
0
0
0
0
0
0
0
0
0
0
539.34892
605.32913
549.6454
614.69344
605.75948
604.38404
613.96901
597.12686
557.74162
0
0
0
0
0
0
0
0
357.87534
0
0
0
0
86.595507
0
0
0
0
0
0
0
0
0
0
0
0
0
0
0
0
0
0
0
0
0
0
0
0
0
0
0
0
0
0
0
0
0
0
0
0
0
0
0
0
0
0
0
0
0
0
0
0
0
0
0
157.21021
186.34515
148.25495
0
0
0
199.78321
161.32124
180.70222
0
200.85589
81.318067
0
82.833472
0
0
0
0
0
0
0
0
0
45.985621
141.83452
36.324278
0.20691939
0
69.700925
0
0
0
0
0
0
265.18721
342.93329
509.33848
494.59453
393.63154
481.79589
357.24128
372.20257
355.63462
311.10321
494.66854
396.64643
378.64531
299.48173
267.72008
260.46849
339.91745
146.18352
146.97205
132.4826
189.52406
63.879656
0
0
13.892806
0
29.57741
0
0
403.48155
38.307687
14.147455
39.527587
410.24284
487.51985
8.3997007
10.703782
6.3802651
8.7262586
8.2036005
7.6682232
4.8812102
39.814313
44.153792
14.819748
41.674807
14.236569
41.674653
41.962839
4.8515349
3.2577913
1.9564695
432.37189
330.73559
412.62627
428.8979
165.45791
563.91117
562.22252
564.74057
566.92903
604.64976
571.69614
579.63707
499.39037
510.32104
54.001342
432.80165
533.38185
402.78625
499.89069
435.23365
501.68522
512.96494
520.09159
185.40508
200.85376
313.7853
187.42431
166.4331
281.18459
364.47378
4.8997567
3.6994271
3.460029
0.76027195
581.79808
607.13027
330.03126
389.62663
293.28514
530.23559
496.90356
558.59616
553.22117
558.60703
567.29888
0
0
0
0
106.90333
0
260.85507
205.99185
622.76598
0
0
608.82377
608.84026
619.37448
0
0
0
)


1222
(
284.42858
284.42858
284.42858
284.42858
284.42858
284.42858
0
284.42858
0
0
0
284.42858
0
0
284.42858
284.42858
0
0
0
0
0
0
284.42858
284.42858
284.42858
284.42858
284.42858
0
0
284.42858
0
0
0
0
0
0
0
0
0
0
284.42858
284.42858
284.42858
284.42858
0
0
0
0
0
284.42858
284.42858
284.42858
284.42858
284.42858
0
284.42858
284.42858
0
0
35.965749
0
35.965749
284.42858
113.11062
161.43915
217.33924
284.42858
284.42858
284.42858
284.42858
0
0
0
0
0
0
0
0
0
0
0
284.42858
284.42858
284.42858
0
284.42858
0
0
0
0
0
0
0
0
34.159799
0
34.159799
34.159799
0
0
0
284.42858
0
0
0
0
0
0
0
0
0
0
284.42858
284.42858
284.42858
0
284.42858
284.42858
284.42858
284.42858
0
0
0
0
284.42858
189.29179
0
0
0
0
0
0
0
0
0
0
284.42858
284.42858
284.42858
0
0
0
0
0
0
0
0
0
0
284.42858
0
0
0
0
0
0
0
0
0
0
0
0
0
0
0
0
0
0
0
0
284.42858
284.42858
34.159799
0
0
0
0
0
0
284.42858
259.98491
0
284.42858
284.42858
284.42858
284.42858
284.42858
284.42858
284.42858
284.42858
284.42858
284.42858
0
0
0
284.42858
284.42858
284.42858
284.42858
0
271.86907
0
0
0
0
0
0
0
0
0
0
0
0
0
284.42858
284.42858
284.42858
284.42858
284.42858
284.42858
284.42858
284.42858
284.42858
0
0
0
0
0
0
0
0
0
0
0
0
284.42858
284.42858
284.42858
284.42858
284.42858
284.42858
271.86907
259.98491
284.42858
0
0
284.42858
0
0
0
35.965749
35.965749
35.965749
0
0
0
35.965749
0
0
284.42858
113.11062
113.11062
113.11062
0
284.42858
284.42858
284.42858
284.42858
284.42858
284.42858
284.42858
284.42858
284.42858
0
0
0
0
0
0
0
0
0
284.42858
284.42858
284.42858
0
0
0
284.42858
89.52796
0
0
0
0
0
0
0
0
0
34.159799
0
0
0
0
0
0