/*--------------------------------*- C++ -*----------------------------------*\
  =========                 |
  \\      /  F ield         | OpenFOAM: The Open Source CFD Toolbox
   \\    /   O peration     | Website:  https://openfoam.org
    \\  /    A nd           | Version:  8
     \\/     M anipulation  |
\*---------------------------------------------------------------------------*/
/*   Windows 32 and 64 bit porting by blueCAPE: http://www.bluecape.com.pt   *\
|  Based on Windows porting (2.0.x v4) by Symscape: http://www.symscape.com   |
\*---------------------------------------------------------------------------*/
FoamFile
{
    version     2.0;
    format      ascii;
    class       scalarListList;
    location    "constant/vegetation";
    object      sunViewCoeff;
}
// * * * * * * * * * * * * * * * * * * * * * * * * * * * * * * * * * * * * * //


5
(

212
(
0
717.08284
717.08284
717.08284
717.08284
692.35609
379.71074
100.85923
0
0
0
0
717.08284
717.08284
717.08284
538.98934
0
428.55268
0
0
0
0
717.08284
425.88621
717.08284
23.24666
688.56255
22.001501
717.08284
22.979412
695.81854
96.569231
52.55816
620.43061
51.057935
717.08284
625.06824
708.73864
30.503568
421.69556
67.199975
95.765833
652.21012
547.5385
210.21394
60.993266
25.485156
31.46463
23.658318
58.195025
70.15502
717.08284
66.147366
36.606989
61.477556
35.526439
446.38703
20.814113
28.900788
37.82511
424.78127
46.31129
54.697897
37.445715
30.406861
34.582438
717.08284
0
0
27.324116
66.420967
37.905892
717.08284
0
0
0
0
0
0
0
0
0
0
0
0
0
0
0
0
0
0
0
0
0
0
0
0
0
0
0
0
0
0
0
0
0
0
0
0
0
0
0
0
0
0
0
0
0
0
0
0
0
0
0
0
0
0
0
0
0
0
0
0
0
0
0
0
0
0
0
0
0
0
0
0
0
0
0
0
0
0
0
0
0
0
0
0
0
0
0
0
0
0
0
0
0
0
0
0
0
0
0
0
0
0
0
0
0
0
0
0
0
0
0
0
0
0
0
0
0
0
0
0
0
470.63829
0
0
63.541692
150.81496
8.9779181
408.09673
708.42572
37.712936
0
0
35.23969
0
22.44644
16.445165
297.3197
0
27.269875
)


212
(
0
554.11457
585.76158
0
468.9918
245.22003
0
0
0
0
0
0
484.03813
585.76158
585.76158
440.28281
0
0
0
0
0
0
585.76158
0
0
35.301945
585.76158
40.619244
148.46387
22.069347
0
0
530.55066
585.76158
545.489
236.2259
585.76158
577.98588
33.310893
40.37839
0
25.708908
73.955817
0
47.896314
233.9972
63.399822
31.864998
30.317122
32.727943
585.76158
585.76158
585.76158
82.746122
39.263454
0
442.98475
47.520122
56.174743
0
585.76158
76.269868
79.24333
0
20.494854
105.97134
0
0
0
17.862725
29.77772
17.101645
585.76158
0
0
0
0
0
0
0
0
0
0
0
0
0
0
0
0
0
0
0
0
0
0
0
0
0
0
0
0
0
0
0
0
0
0
0
0
0
0
0
0
0
0
0
0
0
0
0
0
0
0
0
0
0
0
0
0
0
0
0
0
0
0
0
0
0
0
0
0
0
0
0
0
0
0
0
0
0
0
0
0
0
0
0
0
0
0
0
0
0
0
0
0
0
0
0
0
0
0
0
0
0
0
0
0
0
0
0
0
0
0
0
0
0
0
0
0
0
0
0
0
0
522.02276
0
0
130.09613
91.571604
136.083
197.15085
592.37795
40.887829
0
0
6.5120044
0
0
110.12278
389.3488
18.277751
0.41144881
)


212
(
0
536.2201
536.2201
0
536.2201
39.528511
0
0
0
0
0
0
37.000081
241.17972
536.2201
403.04537
0
0
0
0
0
0
536.2201
0
0
0
536.2201
0
25.682302
0
0
0
59.995191
536.2201
392.12359
45.804462
163.156
534.95148
0
35.318793
0
25.461184
41.855216
0
0
0
0
0
0
0
74.284923
35.05916
51.589513
180.39872
0
0
268.77861
0
0
0
442.07131
341.68305
0
0
0
317.77314
134.45457
0
0
0
0
0
64.391157
0
0
0
0
0
0
0
0
0
0
0
0
0
0
0
0
0
0
0
0
0
0
0
0
0
0
0
0
0
0
0
0
0
0
0
0
0
0
0
0
0
0
0
0
0
0
0
0
0
0
0
0
0
0
0
0
0
0
0
0
0
0
0
0
0
0
0
0
0
0
0
0
0
0
0
0
0
0
0
0
0
0
0
0
0
0
0
0
0
0
0
0
0
0
0
0
0
0
0
0
0
0
0
0
0
0
0
0
0
0
0
0
0
0
0
0
0
0
0
0
0
587.1108
0
0
209.42307
68.856078
0
43.835102
556.4878
0
0
0
0
0
0
279.00698
518.45594
30.424914
123.3331
)


212
(
0
411.8157
411.8157
0
411.8157
0
0
0
0
0
0
0
0
0
411.8157
411.8157
99.973483
102.63415
0
0
0
0
411.8157
0
0
0
411.8157
0
0
0
164.11651
0
0
411.8157
72.514006
0
207.17169
411.8157
0
0
0
0
0
0
0
400.37989
0
0
0
126.93852
0
0
0
13.618276
0
0
411.54571
0
0
0
0
13.41127
0
0
0
16.545822
411.8157
0
0
0
0
0
0
0
0
0
0
0
0
0
0
0
0
0
0
0
0
0
0
0
0
0
0
0
0
0
0
0
0
0
0
0
0
0
0
0
0
0
0
0
0
0
0
0
0
0
0
0
0
0
0
0
0
0
0
0
0
0
0
0
0
0
0
0
0
0
0
0
0
0
0
0
0
0
0
0
0
0
0
0
0
0
0
0
0
0
0
0
0
0
0
0
0
0
0
0
0
0
0
0
0
0
0
0
0
0
0
0
0
0
0
0
0
0
0
0
0
0
0
0
0
0
0
0
242.8537
5.0774175
0
247.94949
49.10279
32.11272
37.541982
442.86171
0
0
0
0
0
0
101.79009
561.59976
4.5023664
235.09731
)


212
(
0
284.42858
284.42858
0
284.42858
0
0
278.16018
63.763241
0
0
0
0
0
284.42858
284.42858
284.42858
284.42858
0
0
0
0
284.42858
0
0
284.42858
284.42858
284.42858
0
63.687269
226.66359
0
35.965749
284.42858
198.7929
222.87638
267.65816
284.42858
284.42858
265.46113
0
0
0
57.19279
0
284.42858
284.42858
0
0
262.50689
0
34.159799
0
0
0
284.42858
284.42858
0
0
274.49416
0
0
0
0
0
0
284.42858
0
0
235.42897
0
0
0
0
0
0
0
0
0
0
0
0
0
0
0
0
0
0
0
0
0
0
0
0
0
0
0
0
0
0
0
0
0
0
0
0
0
0
0
0
0
0
0
0
0
0
0
0
0
0
0
0
0
0
0
0
0
0
0
0
0
0
0
0
0
0
0
0
0
0
0
0
0
0
0
0
0
0
0
0
0
0
0
0
0
0
0
0
0
0
0
0
0
0
0
0
0
0
0
0
0
0
0
0
0
0
0
0
0
0
0
0
0
0
0
0
0
0
0
0
0
0
0
0
14.736522
140.19671
21.439956
312.69862
36.531551
193.41521
18.345488
323.61964
0
0
8.3867739
0
29.565992
0
0
550.22693
0
262.45633
)

)


// ************************************************************************* //
