/*--------------------------------*- C++ -*----------------------------------*\
  =========                 |
  \\      /  F ield         | OpenFOAM: The Open Source CFD Toolbox
   \\    /   O peration     | Website:  https://openfoam.org
    \\  /    A nd           | Version:  8
     \\/     M anipulation  |
\*---------------------------------------------------------------------------*/
/*   Windows 32 and 64 bit porting by blueCAPE: http://www.bluecape.com.pt   *\
|  Based on Windows porting (2.0.x v4) by Symscape: http://www.symscape.com   |
\*---------------------------------------------------------------------------*/
FoamFile
{
    version     2.0;
    format      ascii;
    class       scalarListList;
    location    "constant/air";
    object      divqrsw;
}
// * * * * * * * * * * * * * * * * * * * * * * * * * * * * * * * * * * * * * //


5
(

5999
(
0
0
0
0
0
-100.09484
0
-125.59218
0
-112.90711
0
-83.686121
0
0
0
0
-154.8788
0
0
0
0
-141.88653
0
0
0
-124.13765
0
0
-105.47172
0
-38.43454
0
-50.544505
0
0
-40.871271
0
0
-91.380457
-182.64397
0
-51.985055
0
-105.21894
0
-107.18258
-139.05143
0
-152.90922
0
0
0
0
0
0
-165.20268
-123.44176
0
0
0
0
0
-54.81601
0
0
-97.559632
-62.52694
-101.13437
0
0
0
0
0
0
-124.75868
0
-71.928435
0
0
0
-69.433092
0
0
-15.369416
0
0
0
0
0
0
0
-107.9729
0
0
0
-32.261537
0
-17.797033
0
-25.207406
0
0
-133.9041
-167.27953
0
-118.20052
-126.13261
-90.686903
-97.53022
0
-169.7009
0
0
0
0
0
0
0
0
0
0
0
0
0
0
0
-180.50576
-133.01143
-142.88151
0
0
-169.23795
0
0
0
-138.82622
-131.00356
-155.89035
-88.785497
0
0
0
-138.95605
0
0
0
-40.94094
-34.343714
-73.511999
-91.496852
0
-61.910411
0
0
0
0
-154.6138
0
0
-143.6135
-196.41765
-50.46375
-94.57069
-112.29094
-153.8702
-179.703
-75.496793
0
-103.48773
-128.45085
0
0
0
-159.3482
0
0
0
0
-168.78155
0
0
0
0
0
-108.11988
-140.16518
0
0
0
0
0
0
-135.31499
0
-173.30381
0
0
0
-139.16332
-170.32138
0
0
0
-87.206079
-39.410962
0
-59.789465
-49.974006
-118.97852
-73.874497
0
-100.66569
0
0
0
0
0
0
0
0
0
-19.021215
0
0
0
0
0
0
0
0
0
0
0
0
0
0
0
0
0
0
0
0
0
0
0
0
0
0
0
0
0
0
0
0
-101.80518
0
0
0
0
0
0
0
0
0
0
0
0
0
0
0
0
0
0
0
0
0
0
0
-38.617113
-22.099628
-51.290712
-50.807265
-29.496404
0
-70.217151
-37.000748
-17.644365
-61.591871
0
-31.228845
-57.218656
0
0
0
0
0
0
0
-50.385763
-44.57004
-108.29738
-54.879695
-63.972741
-35.457519
-76.934729
-66.066739
-140.05234
-180.13569
-164.43652
-125.32659
-135.06166
-180.74028
-113.16783
0
0
0
-96.886465
0
0
0
-130.19902
-102.40775
-69.890974
-61.00069
-108.16099
-96.889613
-83.021018
0
0
0
-94.727207
0
0
-58.547205
-134.46251
-128.17281
-146.64758
-66.541972
-116.10873
-174.5073
-89.364637
-84.21981
-88.906365
0
0
0
-176.23775
-92.073544
0
0
-93.282026
0
0
0
0
0
0
0
0
0
0
0
0
0
0
0
0
0
0
0
0
0
0
0
0
0
0
0
0
0
0
0
0
0
0
0
0
0
0
0
0
0
0
0
0
0
0
0
-175.27878
-160.9204
0
0
-40.911071
0
0
-48.21441
0
0
0
-47.604088
-64.575229
0
-57.635429
0
0
0
0
0
0
0
0
-64.362265
0
-107.3392
-88.340669
0
-98.255006
-70.697376
-55.155145
0
-75.944651
-72.439972
-45.204377
0
-85.523794
0
0
-112.63884
-102.74708
0
-115.76335
0
0
0
-92.478082
0
-99.798683
0
0
0
0
0
0
0
0
0
0
0
0
0
0
0
0
0
0
0
0
0
0
0
0
0
0
0
0
0
0
0
0
-75.995983
-110.76605
-87.113636
0
-87.274592
0
0
0
0
0
-12.443985
0
-122.06317
-145.65764
-96.631888
-133.95777
-106.65775
-115.90344
-142.88654
-85.907174
-144.22771
-84.031393
-90.742412
-107.44111
0
-116.07756
0
0
0
0
0
0
0
-155.93336
0
0
-86.947175
0
0
0
0
0
0
0
-18.155346
-13.901816
-23.589071
-22.068154
0
-20.34726
-14.953044
0
0
0
0
0
0
0
-188.14877
-124.52304
-127.76851
-127.6342
-166.09491
-181.68326
-136.18049
0
0
0
0
0
0
0
0
0
0
0
0
0
0
0
0
0
0
0
0
0
0
0
0
0
0
0
0
0
0
-197.40417
0
-88.423979
-100.2676
-159.38988
-203.80954
0
0
0
0
0
0
0
0
0
0
0
0
0
0
0
-16.058014
0
0
0
0
-18.64632
0
0
-116.30982
0
0
-131.85496
-120.70213
0
0
0
0
0
0
0
0
0
0
0
-117.31854
0
0
-26.097397
-28.157001
-41.805144
-35.430318
-25.33298
-38.19698
-29.098035
-68.110722
-65.482869
-56.807655
-48.539781
-59.900668
-54.144957
-73.259857
-36.967564
-31.560816
-44.877673
-42.913602
-34.839371
-32.575483
-47.661102
-35.101052
0
-49.296634
0
-35.248839
-48.590665
0
-73.102783
-97.376061
-76.154915
-80.950869
-68.191662
-82.920934
-85.518832
-172.82106
-183.87405
-178.60374
-166.77714
-176.59502
-168.20092
-174.20758
-77.269966
-66.941351
-58.937268
-52.863723
-67.927766
-74.98397
-60.538743
-112.12488
-113.36385
-118.56218
-88.598133
-100.74549
-97.309715
-129.10522
0
-65.368578
0
0
0
-112.64527
-107.85795
-93.914204
-102.78117
-97.398439
0
-112.6279
-121.24448
-107.87343
-85.711369
-84.046441
-95.235305
-111.76005
-164.35553
-133.67579
-123.37427
-136.96654
-144.33959
-98.876726
0
0
-142.57224
-138.68184
-169.21049
-151.55265
-154.09267
-161.61244
-123.38852
-130.67018
-137.94461
-122.00148
-145.91222
-147.40276
0
0
0
0
0
0
0
0
0
0
0
0
0
0
0
0
0
0
0
0
0
0
0
-89.836559
-82.921781
-54.593445
0
-59.569132
0
0
-26.401106
0
0
-46.689789
0
0
0
-84.104821
-33.417473
0
-50.968738
-53.534126
0
0
-70.973608
0
0
-51.49501
0
0
0
0
0
0
0
0
0
0
0
0
0
0
0
0
0
0
0
0
0
0
0
0
0
0
0
0
0
0
0
0
0
0
0
0
0
0
0
0
0
0
0
0
0
0
0
0
0
0
0
0
0
0
0
0
0
0
0
0
0
0
0
0
0
0
0
0
-71.839699
-110.51855
-84.299379
-99.890471
-94.003906
-86.741454
-76.360738
0
0
0
-60.825025
0
0
0
0
0
0
-93.409582
-78.911865
0
0
0
0
-29.955151
0
0
-24.699328
-24.382606
0
0
0
0
0
0
0
-16.237065
-14.263675
-20.002988
-16.512246
0
-16.165609
-19.857534
-15.02002
0
-18.06379
0
-14.280238
-18.637116
0
-19.166355
-27.497108
-22.31146
-21.565178
-18.119524
-23.511404
-22.941102
0
0
0
0
0
0
-19.382761
0
0
0
0
0
0
0
-130.9487
-135.1194
-152.27198
-118.0692
-157.82886
-110.35584
-135.82426
-137.07592
-155.79401
-158.30589
-148.28965
-131.98095
-149.8157
-152.54394
-102.52316
-68.016216
0
0
-80.685664
-87.22662
-77.326227
-123.70757
-130.15393
-120.04577
-112.49111
-112.96415
-133.79153
-119.84621
-136.14346
-138.97206
-143.58428
-122.54687
-138.25341
-150.35306
-128.72715
-115.07857
-103.29034
-75.42782
-108.42376
-97.593553
-91.842423
-120.93232
-117.15837
-126.0076
-130.56558
-80.712251
-109.47391
-148.86598
-97.790396
0
0
0
0
0
0
0
-99.290212
-157.01474
-136.65712
-140.59599
-124.01502
-129.71923
-108.75569
0
0
0
0
-73.296022
0
0
0
0
0
0
0
-79.78827
0
0
0
-103.76678
0
-96.624084
-78.005646
0
0
0
-111.38179
0
-92.914324
-82.078644
0
0
0
0
0
0
0
0
0
0
0
0
0
0
0
0
0
0
0
0
0
0
0
0
0
0
0
0
0
-168.69637
-172.19907
-184.76247
-164.56915
-117.14431
-184.01329
0
0
-171.05653
-156.3597
-191.16894
-125.60905
-151.85787
-160.50925
-187.83055
-137.1795
-131.07831
-165.76469
-151.2129
-157.2146
-157.30393
-152.89852
0
0
0
0
-98.11508
-87.809882
-179.10978
0
-116.13912
0
0
-122.32872
-162.48026
-169.59639
-184.67423
-162.45147
-85.285913
-132.02863
-163.13468
-117.56253
0
0
0
0
0
0
0
0
0
0
0
0
0
0
0
0
0
0
0
0
0
-101.16953
-78.31532
-164.23883
-103.40751
-62.825452
-112.96522
-145.73422
0
0
-174.09258
-161.14847
-158.96645
0
0
-116.45669
0
-164.07735
-184.43125
0
-162.51566
0
-96.395001
0
-97.74884
-147.42261
-58.81759
-141.13944
0
0
0
0
0
0
0
0
0
0
0
0
0
0
0
0
0
0
0
0
0
0
0
0
-104.65555
-93.637558
0
0
0
0
0
0
0
0
0
0
0
0
0
0
0
0
0
0
0
-83.102396
0
0
0
0
-22.559975
-41.710487
-27.640269
-26.434415
-38.920541
-38.915074
-24.918021
-17.508788
-56.398146
-29.702576
-28.501027
-31.02639
-50.19999
-18.888801
-48.43508
-56.807197
-37.755472
-34.623462
-66.007761
-41.283349
-53.722617
-40.701657
-75.629249
-64.482172
-76.429296
-50.449649
-48.83708
-61.514606
-24.022933
0
-25.189097
0
-38.997733
-21.766612
-16.100722
-30.938483
-46.669622
-57.961218
-31.483584
-44.629083
-45.164146
-26.512338
-30.735445
-35.823212
-67.401989
0
-44.625599
-55.323672
-20.221229
0
0
0
0
0
0
0
0
0
0
0
0
0
0
0
0
0
0
0
0
0
0
0
-110.73579
-175.10287
-131.97274
0
0
0
0
0
0
0
0
0
0
0
0
0
0
0
0
0
0
-164.44475
0
-117.4519
0
0
-190.66273
-152.03282
-135.6472
-127.14807
-189.28735
-133.71805
-188.32117
-100.85509
-59.972893
-83.521657
-83.609646
-59.29655
-57.718798
-90.409087
-117.8828
-67.440338
-96.09049
-87.781965
-85.250268
-104.9776
-58.971311
-96.210651
-94.852582
-128.29564
-84.537427
-111.77275
-113.18365
-67.351765
-136.74269
-166.08579
-193.30314
-151.77889
-151.90135
-184.41396
-131.13488
-134.8534
-188.14645
-152.31355
-202.85289
-136.73113
-151.50746
-189.91858
-92.52919
-65.190054
-79.157737
-132.21547
-106.9118
-65.158979
-98.106022
-48.542911
0
0
-128.54465
-73.37829
-50.97746
-36.01575
-57.794999
0
-79.10015
-66.377637
-91.870694
-135.91447
-64.169628
-71.974625
-100.9093
-116.81203
-88.062151
-133.2344
-86.149328
-71.145108
0
0
0
0
0
0
0
-49.550325
0
-97.820876
0
0
-123.50289
0
-60.934735
-43.024851
-81.257749
0
0
-66.728414
0
0
0
0
-190.9271
-91.791275
-94.872729
0
0
0
0
0
0
0
0
0
0
0
0
0
0
0
0
0
0
0
0
0
0
0
0
0
0
0
0
0
-198.1741
0
0
-95.541962
0
-104.07768
0
0
0
0
0
0
0
0
0
0
0
0
0
0
0
0
0
0
0
0
0
0
0
-147.61497
0
0
0
0
0
0
0
-153.65468
0
0
0
0
0
0
0
0
0
0
0
0
0
0
0
0
0
0
0
0
0
0
0
0
0
0
0
0
0
0
0
0
0
0
0
0
0
0
-200.60105
-75.605714
-92.933847
-105.11255
-193.42206
-204.46581
-100.1052
0
0
0
0
0
0
0
0
0
0
0
0
0
0
0
0
0
0
0
0
0
-98.888717
-159.44588
-175.62507
0
-200.43272
0
0
-103.76757
-196.47171
0
-178.6538
-201.06234
-105.2583
0
0
0
0
0
0
0
0
0
0
0
0
0
0
0
0
0
0
0
0
0
-142.37388
0
0
0
0
0
0
0
-146.70569
0
0
0
0
0
0
0
-19.88639
0
0
0
-44.966239
-22.814707
0
0
0
0
0
0
0
0
0
0
0
0
0
0
0
-20.455442
0
0
-19.802452
0
0
-46.241144
0
-27.294856
0
-23.99371
0
0
0
0
0
0
0
0
0
-103.40257
0
0
-97.793795
-56.128319
-104.28793
-72.425742
0
0
0
0
0
0
0
0
0
-131.19453
-135.7287
0
-123.65112
0
0
0
-57.411717
0
-131.4982
-108.80524
0
0
0
0
0
0
0
0
0
0
0
0
0
0
0
0
0
0
-116.83601
0
0
0
0
0
0
0
0
0
0
0
0
0
0
0
0
0
0
0
0
0
0
0
0
-23.384562
-15.467313
-17.289231
0
-20.233516
-22.792224
0
-44.661401
0
0
0
0
-29.782824
0
-28.661513
0
0
0
0
0
0
0
0
0
0
0
0
0
0
0
0
0
0
0
0
0
0
0
0
0
-22.009005
0
0
0
0
0
0
0
0
0
0
0
0
0
0
0
0
0
0
0
0
0
0
0
0
0
0
0
0
0
0
0
0
0
0
0
-73.253466
-83.961558
-78.617216
-100.38856
-76.20863
-70.371878
-88.001169
-76.095794
-62.557536
0
-84.27238
0
0
-81.527225
0
-35.760281
0
0
-40.552534
0
0
0
0
-55.714468
0
0
-48.466419
0
0
0
0
0
0
0
0
-77.048788
0
-99.925568
-88.11482
0
0
-92.761597
0
0
0
0
0
0
0
0
0
0
0
0
0
0
0
0
0
0
0
0
0
0
0
0
0
0
0
0
0
0
0
0
0
0
0
-44.88346
-36.086881
-35.652839
-31.726932
-30.263292
-38.093037
-41.503886
-29.866724
-26.330615
-24.500623
-20.961469
-24.767709
-28.932481
-25.980428
-38.600391
-48.351734
-33.287341
-55.536379
-33.057333
-39.727842
-51.871863
-42.115252
-46.82329
-42.23326
-57.717871
-38.484502
-47.198368
-52.737571
-33.885361
-32.526015
-26.964464
-34.27445
-28.621055
-31.566535
-37.942914
-30.65608
0
-19.473162
0
-24.872482
-25.416705
-31.240122
-55.948359
-45.302615
-63.086461
-64.192364
-48.03085
-51.776281
-58.162916
-42.1906
0
0
-32.976829
-35.165783
-28.515233
-40.836647
-26.938509
-21.542754
-22.272743
0
-22.61824
-26.841605
0
-39.00741
-56.600617
-44.927788
-61.345076
-38.697885
-46.103974
-55.548053
0
0
0
0
0
0
0
-32.564038
-33.193493
-26.434566
-37.821476
-27.520646
-31.925056
-39.359181
-47.981564
0
0
-38.68333
-59.307372
-47.078895
-50.665631
0
0
0
0
0
0
0
0
0
0
0
0
0
0
0
0
0
0
0
0
0
0
0
0
0
0
0
0
0
0
0
0
0
0
0
0
-42.027697
0
0
-45.426901
-35.929501
0
-51.591439
-50.50641
-59.238948
-56.146078
-41.63421
-47.641836
-48.10916
-95.477984
-93.709618
-82.149599
-77.78611
-102.93524
-89.3199
-89.73575
-62.116697
-63.328585
-46.091182
-62.606881
-56.523219
-52.219923
-70.853008
-62.622493
-70.591278
-51.130409
-65.154001
-59.418206
-53.104299
-73.592313
-52.729892
-38.526958
-39.585386
-42.989973
-49.041813
-43.761349
-45.533704
-63.486372
-84.889979
-72.36666
-67.416058
-69.963711
-58.024014
-78.018172
-56.883913
-78.496717
-68.131999
-65.510013
-65.630382
-55.045987
-76.182017
-152.47875
-143.28261
-157.47247
-182.07971
-160.77525
-172.96723
-168.89217
-169.83393
-183.88731
-167.22456
-164.91122
-165.40378
-172.73111
-168.36786
-175.94062
-173.0824
-153.41011
-174.33766
-168.22221
-165.43613
-178.62065
-150.31889
-123.43655
-145.90517
-171.0665
-152.96781
-154.74241
-171.62787
-170.57107
-147.74283
-152.37363
-144.09719
-162.47192
-161.16852
-156.38281
-171.01784
-174.49159
-170.56867
-185.46583
-184.07452
-177.46341
-185.82643
-130.85765
-119.09238
-137.42032
-169.08115
-150.44891
-165.90094
-154.93937
0
0
0
0
0
0
0
0
-93.541164
0
0
-84.288899
-77.394684
0
0
0
0
0
0
0
0
0
0
0
0
0
0
0
0
0
0
0
0
0
0
-116.74385
-112.53377
-139.57637
-121.77274
-130.74969
-110.16287
-119.82463
-94.719069
-84.737326
-102.92215
-105.14138
-110.83355
-85.227176
-90.985341
-86.331083
-65.357433
-85.118544
-72.494696
-83.141356
-67.661205
-88.244614
-81.037052
-55.785475
-75.591812
-69.775959
-69.886409
-64.281628
-87.339961
-99.258556
-123.66919
-103.88664
-90.789957
-116.9453
-85.464399
-105.62393
-104.12769
-108.2505
-108.42003
-93.227991
-118.87318
-97.562072
-100.58177
-100.1889
-91.573052
-77.428166
-77.970942
-72.24492
-93.749732
-98.477968
0
0
0
0
0
0
0
0
0
0
0
0
0
0
0
-84.030781
0
0
-87.289044
0
-79.081467
0
0
0
-51.033812
0
0
-62.157504
0
0
-76.325981
0
0
0
-71.193492
0
-71.352292
0
0
-54.667598
0
-66.617853
-144.79319
-122.6447
-133.07299
-132.40749
-146.01934
-151.88472
-126.92347
-148.26182
-113.14886
-133.07291
-122.81015
-120.94575
-105.45188
-138.91486
-127.04111
-131.96843
-131.86795
-156.92093
-113.75216
-145.01796
-143.27878
-117.96612
-130.92101
-124.03027
-97.090275
-102.97359
-137.90043
-112.30987
-161.43214
-165.97535
-151.46178
-140.19372
-167.10778
-157.95119
-154.51878
-106.47289
-100.28111
-116.79244
-111.11771
-84.845157
-91.818684
-105.47922
-76.107767
-108.65108
-81.833372
-97.234775
-73.4568
-88.692335
-110.73732
-87.42288
-104.34609
-89.639804
0
-78.529963
0
0
0
0
0
0
0
0
0
0
0
0
-124.00447
-175.63702
-144.12373
-152.52399
-117.1187
-150.33919
-154.24943
-96.687765
0
0
-88.351062
-115.72539
-124.58611
-76.625635
-81.149583
-93.76123
0
0
-110.31958
-67.717786
0
-89.920245
0
-111.25568
0
-83.961048
-119.48115
0
0
-99.513762
0
-98.212488
-126.96844
-90.84367
-131.66565
0
0
0
0
0
0
0
0
0
0
0
0
0
0
0
0
0
0
0
0
0
0
0
0
0
0
0
0
0
0
0
0
0
0
0
-159.13685
-170.40019
-180.4879
-177.03292
-163.37192
-170.92543
-179.50346
-149.41936
-167.75827
-173.20626
-165.08252
-158.19659
-176.19158
0
0
0
-10.725276
0
-12.161877
-11.841794
0
-10.795702
0
-176.46819
-161.84353
-164.99902
-168.7948
-163.53027
-186.68858
-165.33865
-181.43653
-113.57098
-144.95533
-160.23037
-154.83445
-198.94099
-125.27534
0
0
0
0
0
0
0
-96.740176
-135.63831
-108.78752
-113.07588
-130.55474
-139.50449
-101.43669
0
0
0
0
-114.58563
-87.931907
-78.16824
0
0
0
0
0
0
0
0
0
0
0
0
0
0
-110.9095
-137.67617
-111.31002
-109.30487
-126.25827
-120.7604
-98.357658
0
0
0
0
0
0
0
-67.242442
-82.539476
-73.65403
-56.240972
-61.447439
-84.551831
-60.844705
0
0
0
0
0
-39.175432
0
0
-79.691937
-66.166198
-52.1844
-56.692071
0
-47.34443
-154.79279
-179.30303
-167.5452
-172.7119
-185.82932
-180.55962
-162.69788
-158.69
-131.45714
-147.57045
-152.35667
-164.37224
-141.70414
-142.27945
0
0
0
0
0
0
0
0
0
0
0
0
0
0
-162.70741
-175.63535
-171.4715
-144.5988
-153.59891
-174.59771
-153.27716
-153.80251
-153.50941
-149.51929
-123.84829
-141.03544
-164.63637
-134.55056
-151.23308
0
-155.50651
-154.40396
-164.82217
-127.52004
-139.80143
-160.41406
-130.53747
-166.92836
-165.37074
-152.52798
-171.71756
-142.82179
-121.95631
-102.39465
-89.217576
-108.61861
-102.50869
-106.8913
-124.14879
-127.89918
-149.56998
-132.18032
-118.72937
-129.04089
-136.97066
-119.70572
0
0
0
0
0
0
0
0
0
0
0
0
0
0
-32.409888
-42.022869
-34.750792
-34.811267
-42.043944
-42.183557
-33.378133
-27.142387
-43.204374
-33.061524
-30.790234
-28.782716
-36.876879
-24.724792
-17.255889
0
0
0
0
0
0
-45.624972
-52.47888
-63.332994
-49.47209
-52.995852
-53.578898
-43.271969
-38.330583
-37.238669
-45.132281
0
-38.570711
-47.19253
-31.393375
-175.28702
-166.51184
-152.67827
-163.46472
-169.94011
-174.20188
-157.6601
0
0
0
0
0
0
0
-115.20205
-116.37333
-155.03941
-120.12389
-134.82723
-136.27996
-94.513374
-64.170341
-50.371621
-63.822204
-64.511699
-51.72733
-50.698335
-65.715793
-177.81205
-160.6394
-181.05518
-166.9197
-176.08021
-187.58335
-169.99265
-180.34213
-185.07229
-179.24242
-186.53577
-179.06117
-181.05553
-191.54001
-78.208596
-62.519154
-76.227944
-93.426035
-92.147477
-63.523759
-78.914917
0
-54.86586
-67.866374
-52.023787
-33.752531
-43.992872
0
-105.9983
-89.785891
-98.114746
-93.262404
-100.33155
-105.90895
-85.678091
-100.13144
-118.02118
-126.79943
-108.15774
-120.78551
-110.45966
-97.290655
0
0
0
0
0
0
0
-69.091614
0
-53.196746
0
0
-57.448128
0
-131.38843
-133.77343
-109.32635
-131.60312
-174.39845
-146.00905
-157.16261
-146.76703
-179.56488
-153.75398
-140.52937
-151.52092
-131.69635
-171.315
0
0
-134.62258
0
0
0
0
0
-106.94944
-123.12166
-146.52693
-116.92256
0
-127.14497
0
0
-118.18736
-110.38667
0
0
0
-185.87998
-149.39724
-163.61389
-182.63137
-185.91577
-196.95622
-170.23979
-135.05825
-147.65755
-171.43806
0
-183.47845
-123.83916
-105.47298
-171.09434
-179.94538
-158.25611
-173.71378
-182.40249
-172.7518
-157.95161
0
0
-123.37143
0
0
0
0
0
-101.05758
-85.281851
-109.21404
0
-125.13385
-97.384346
-29.831847
-37.300246
-27.374958
-29.617682
-41.400589
-31.65653
-40.160768
0
0
0
0
0
0
0
-36.570734
-50.755554
-56.966181
-45.91853
-41.650438
-40.244187
-48.398151
-63.635432
-48.905621
-59.485394
-64.728476
-52.153682
-66.168236
-51.986575
-112.06952
-125.32602
-135.66625
0
-139.74108
-105.95788
-92.717993
-70.575893
-61.369305
-72.464348
-93.661112
-78.627728
-83.908055
-60.297153
0
-106.98463
0
0
0
0
0
0
-76.344855
0
-96.054756
0
-110.3161
-105.30079
-77.444325
-89.933249
-133.40945
-135.31322
-136.8021
-121.20725
-106.53331
-108.31565
0
0
0
0
0
0
0
0
0
0
0
0
0
0
0
-81.717505
-115.45221
0
0
-106.15261
0
0
0
0
0
0
0
0
0
0
0
0
0
0
0
0
0
0
0
0
0
0
-14.409506
-19.73783
-15.811654
-15.434814
-18.540174
-14.560452
-19.438335
-10.648392
-17.367122
-13.560916
-12.77631
-13.620598
-16.590428
-10.30313
-21.339346
-20.371202
-17.190888
-16.211986
-21.890374
-20.31881
-19.097683
-15.59098
-20.160693
-21.094227
-19.785543
-19.336094
-18.179167
-17.043377
-11.926886
0
-12.046458
-9.5633291
-11.13164
-12.986772
-8.7470132
-15.339533
-18.968303
-20.755375
-16.049031
-14.906089
-19.192755
-16.635253
-12.541081
-13.860011
-17.712208
-11.391731
-16.356883
-13.749963
-10.461184
-181.06779
-166.17296
-164.24183
-167.24177
-195.52451
-189.84924
-168.15034
-149.14612
-121.33751
-145.35225
-145.81709
-125.00849
-149.69791
-121.70293
-169.479
-164.69765
-190.98788
-165.43113
-188.70898
-165.25443
-170.36516
0
0
0
0
0
0
0
0
0
0
0
0
0
0
0
0
0
0
0
0
0
0
0
0
0
0
0
0
0
0
0
0
0
0
0
0
0
0
0
0
0
0
0
0
0
0
0
-191.24478
-164.28014
-159.34771
-175.67809
-208.40397
-207.97885
-179.93537
0
0
-100.17006
-113.40954
0
-83.087644
0
-128.98417
0
-121.18855
-137.90114
-102.57911
-146.8825
-92.714641
-138.10442
-101.49597
-147.70837
-91.01322
-147.21255
-91.979596
-138.36719
-159.83388
-157.01269
-205.62079
-124.66183
-202.16142
-124.99414
-159.44198
-175.30737
-205.95451
-178.54442
-206.33079
-207.57481
-179.1231
-175.06368
-113.0706
0
0
-81.907457
-82.54166
0
-112.70021
-12.980404
-12.744499
0
0
-16.770313
-13.585468
-13.430751
0
0
0
0
0
0
0
0
0
0
0
0
0
0
0
0
0
0
0
0
0
0
-17.530959
-14.896331
-15.285701
-14.291892
-14.149365
0
0
0
0
-88.122834
0
0
0
-128.1956
-92.79821
-102.43637
-106.56125
-117.77086
-129.88613
-97.847982
0
-70.362541
-77.639433
-84.828418
0
0
-79.632937
-91.497741
0
-97.006016
0
0
-88.522436
-97.62408
-114.80268
-131.11077
-139.09372
-101.79101
-139.28984
-101.54134
-116.05478
-110.3643
-119.24386
-107.36486
-132.88445
-131.45648
-102.71064
-113.82591
-91.556026
0
0
0
0
0
-94.308282
0
0
0
0
0
0
0
0
0
0
0
0
0
0
0
0
0
0
0
0
0
0
-115.87284
-87.81791
-79.393502
-87.92555
-78.722586
0
0
0
0
0
0
0
0
0
0
0
0
0
0
0
0
0
0
0
0
0
0
0
0
0
0
0
0
0
0
0
0
0
0
0
0
0
0
0
0
0
0
0
0
0
0
0
0
0
0
0
0
0
0
0
0
0
0
0
0
0
0
0
0
0
0
0
0
0
0
0
-70.596954
0
0
-61.553927
0
-66.27037
-64.539984
-84.455849
-107.6092
-63.520401
0
0
-98.874736
-91.829073
-101.32854
-98.577678
-106.35304
-79.079316
-92.544313
-115.30518
-88.101356
-93.530028
-96.706453
-84.853815
-74.14554
-77.569773
-102.13528
-87.09585
-78.190877
-50.949933
-58.679411
-83.374542
-53.538016
-72.490872
-90.461957
-75.451391
0
0
-71.767565
0
-68.035491
-80.835988
-85.566753
-65.39802
-69.892632
-66.488296
-78.244024
-71.172455
-78.15854
0
0
0
0
0
0
0
0
0
0
-33.149567
0
0
-25.828132
0
0
0
0
0
0
0
0
0
0
0
0
0
0
0
-52.028554
-39.949354
-38.142477
-43.549387
0
-32.621671
0
0
0
0
0
0
0
-52.321106
0
0
-56.611326
0
-59.965008
0
-52.972078
0
0
0
0
0
-65.476429
-76.111491
-78.955126
-98.860148
-73.418983
-84.542137
-91.653862
-67.348709
-51.447849
-40.952776
0
-40.084939
-41.739395
-42.666172
-48.213651
0
0
0
0
0
0
0
-60.194056
0
0
-77.234798
0
-66.696933
-71.27841
-60.98404
-59.063144
-62.885035
-46.790646
-70.0283
-50.386935
-55.777691
0
0
0
0
0
0
0
0
0
0
0
0
0
0
0
-58.858402
-70.555682
-62.290429
-64.26851
0
-51.4782
0
0
-32.819587
0
0
-35.688211
0
0
0
0
0
0
0
0
-49.36689
-55.665086
-56.694637
-42.20363
-59.747614
0
-46.648169
0
0
0
0
0
0
0
0
0
0
0
0
0
0
0
0
0
0
0
0
0
0
0
0
0
0
0
0
0
-37.110457
0
0
0
0
0
0
0
0
0
0
0
0
0
0
0
0
0
0
0
0
0
0
0
0
0
0
-127.83692
-150.91371
-159.97086
-108.14
-134.56871
-136.6649
-171.41099
-175.82252
-168.94213
-169.67304
-162.991
-173.95895
-168.09334
-173.80612
-161.87176
-166.36095
-144.01174
-140.42916
-176.92694
-170.39382
-158.20959
-184.00015
-161.30873
-150.79201
-180.36705
-174.84539
-174.21686
-184.53765
-175.89884
-168.09432
-176.10987
-178.04537
-164.91352
-165.57125
-112.55527
-148.24621
-145.52678
-141.55587
-169.25804
-140.88838
-87.832984
-106.08833
-109.60413
-80.045871
-92.854467
-118.79117
-88.378523
-113.33099
-134.05025
-151.55798
-172.12796
-190.30427
-130.36305
-150.92839
-178.07764
0
0
0
0
0
0
0
0
0
0
0
0
0
0
-121.56964
-140.60067
-186.1242
-131.54838
-147.7671
-157.12669
-107.81515
-109.35712
-120.70923
-132.95089
-116.0479
-122.47914
-120.0169
-161.32712
-138.77448
-149.13921
-146.67845
-169.80403
-132.54081
-160.18223
-169.51522
-187.53234
-181.99992
-178.59274
-156.86852
-171.43087
-145.71285
-139.93845
-172.75379
-142.60575
-148.01782
-157.88769
-132.04
-171.64654
-177.60523
-188.74184
-178.89562
-172.07048
-172.89705
-187.73057
-158.41898
-140.8775
-139.45717
-149.62006
-156.58446
-152.74901
-146.15702
-169.52141
-158.16474
-180.98433
-158.23632
-177.63743
-174.41083
-149.33334
-170.89712
-166.86023
-151.25524
-177.59205
-166.57046
-183.85254
-166.54926
-158.57093
-167.69321
-143.82037
-153.90758
-158.39538
-162.30338
-144.99805
0
-131.71497
-135.07482
-134.81898
-105.57455
-107.93836
-115.4918
0
0
0
0
0
0
0
0
0
0
0
0
0
0
0
0
0
0
-83.508167
0
0
0
0
0
0
0
0
0
0
-116.75423
0
-77.157919
0
-95.646053
0
0
-114.76796
0
-76.659309
0
-98.671003
0
-157.67168
-165.92833
-162.60799
-184.20876
-171.64289
-172.6165
-143.25876
0
0
0
0
0
0
0
-123.53105
0
-124.5281
-144.06438
-153.20239
0
0
0
0
0
0
0
0
0
0
0
0
0
0
0
0
-143.22922
-145.62935
-134.40215
0
-160.69705
0
0
-135.08374
-175.47761
-122.50534
-153.48708
-146.27807
-164.50426
-113.22806
-164.75248
-157.83442
-181.81825
-159.5536
-172.90817
-176.22324
-146.07206
-169.99611
-180.53808
-175.01672
-168.79121
-175.39766
-175.03041
-161.22156
-161.85448
-161.77688
-165.01304
-159.84895
-167.6043
-156.08682
-162.87371
-143.80113
-116.66232
-104.34723
-95.648792
-118.07018
-131.69087
-126.6336
-155.99808
-145.53253
-162.86913
-117.50747
-170.04889
-132.02979
-145.65688
-155.08633
-146.38795
-146.44266
-106.40092
-166.60923
-131.92896
-136.52943
0
0
0
0
0
0
0
0
0
0
0
0
0
0
0
0
0
0
0
0
0
0
0
0
0
0
0
0
0
0
0
0
0
0
0
0
0
0
0
0
0
0
0
0
0
0
0
0
0
0
0
0
0
0
0
0
0
0
0
0
0
0
0
0
0
0
0
0
0
0
0
0
0
0
0
0
0
0
0
0
0
0
0
0
-140.96748
-86.157476
-105.68949
-153.35228
-90.879354
-159.86149
-133.96215
-132.40338
-125.14511
-72.507926
-88.694655
-115.33033
-83.171601
-140.78953
-161.58495
-155.85199
-178.51498
-153.53207
-172.07942
-170.36518
-142.52056
-143.11056
-109.63079
-121.16511
-116.49177
-129.07703
-135.35656
-122.05963
-123.71759
-73.032598
-66.898115
-98.825844
-105.86314
-77.588828
-116.02255
-147.74221
-109.94556
-99.763532
-170.23548
-95.460765
-165.94595
-154.09378
-154.72884
-161.93963
-149.86147
-130.21925
-167.26471
-148.34839
-135.30966
-163.83053
-168.29787
0
0
0
-168.31204
-162.83894
0
0
0
0
0
0
0
-156.07627
-163.43143
-172.75223
-152.77073
-164.18186
-167.37612
-138.55794
-173.04883
-174.76813
-159.38616
-169.43002
-168.55433
-172.95584
-175.84566
-171.4848
-172.12927
-169.79412
-158.65946
-173.27204
-169.46416
-169.92033
-142.48899
0
0
0
0
-153.58638
0
-162.9671
0
0
0
0
-159.56152
0
-165.51434
-115.6823
-174.68505
0
-112.47306
-173.75884
-169.90763
-147.14646
0
0
0
0
-136.04389
-118.89344
-165.10197
-161.8207
-170.97531
-163.66244
-174.88651
-158.84278
-165.41817
-167.15749
-176.25643
-178.84943
-164.53308
-172.74664
-175.69514
-156.07951
-159.49737
-113.86106
0
-164.9979
0
-170.88724
-151.59002
-169.97477
-176.86037
-164.97749
-169.97646
-177.73578
-173.63438
-168.138
-156.77576
0
0
-143.47138
0
-164.91991
-134.67922
-121.83102
-81.213353
-146.428
0
-78.003786
-126.57446
-143.4151
-102.17416
-81.348212
0
0
-82.057428
0
-103.28579
-120.1958
-92.137579
-113.57822
-110.94647
-106.12581
-127.71714
-105.43841
-142.95621
-129.83842
-143.38915
-161.70676
-157.18303
-125.99066
-147.41677
-101.23457
-68.576782
0
-92.041233
-85.432459
-64.182293
-108.52868
-137.2444
-156.09897
-124.65482
-140.53522
-141.44371
-154.59317
-121.14327
-126.24077
0
0
-146.96918
0
-144.18851
-129.30915
0
0
0
0
0
0
0
0
0
0
0
0
0
0
0
0
0
0
0
0
0
-95.191333
-116.66945
0
0
-97.445
0
-105.92597
-119.80866
-120.52828
0
-107.53831
0
-116.86538
-115.94314
-118.72921
-105.14204
-93.713647
-103.04544
-110.74641
-102.1601
-111.80955
0
0
0
0
-84.885575
0
0
0
0
0
0
0
0
0
0
0
-110.63832
-111.11097
0
0
-116.99794
0
0
0
0
0
0
0
0
0
0
0
0
0
0
0
0
0
0
0
0
0
0
0
0
0
0
0
0
0
0
0
0
0
0
0
0
-67.907639
-79.21356
-95.125543
0
0
0
0
0
0
0
0
0
0
0
0
0
0
0
0
0
0
0
0
0
0
0
0
-26.879195
-24.227358
-28.710381
-28.465729
-23.007484
-23.925824
-27.420501
-25.919545
-32.440689
-30.508148
-29.412721
-25.728481
-24.832111
-30.677839
-28.198501
-23.442918
-25.176028
-29.364761
-23.597158
-29.648764
-27.955153
-21.471265
-21.642127
-26.275779
-25.636356
-17.292899
-20.93406
-21.321704
-50.620216
-43.476598
-37.495166
-36.263752
-51.151014
-41.883994
-44.50335
-25.310125
-36.316438
-30.987974
-29.963861
-28.06245
-24.208902
-34.726939
-29.627275
-26.472725
-37.99672
-26.840088
-32.483684
-32.77371
-24.073789
-35.371267
-45.781928
-42.765834
-44.537433
-40.199608
-37.93455
-39.110365
-25.53609
-17.617137
-22.332875
-23.199424
-20.768076
-27.326211
-21.733031
-67.784515
-88.035825
-66.533628
-70.310552
-77.260684
-59.262
-79.690574
-56.69369
-41.691549
-57.955355
-57.924376
-67.234285
-46.433018
-49.727066
-20.093765
-26.026615
-22.90341
-21.51392
-18.544239
-24.762989
-23.293844
-15.275047
0
-13.006418
-10.427004
-14.093546
-13.999799
0
-21.421233
-19.609301
-29.782077
-24.18683
-23.599434
-26.649207
-19.080183
-19.710126
0
-26.686936
-18.943658
-23.250763
-23.521186
0
-23.798253
-31.679837
-34.367957
-32.709149
-28.074529
-29.046055
-27.638381
-19.366303
-22.363507
-17.236559
-23.226395
-17.977421
-24.017034
-18.468906
-16.352205
-19.11839
-12.371139
-17.339857
-15.007582
-20.579055
-13.532045
-41.435463
-48.725093
-46.469975
-37.842441
-38.881783
-49.272121
-39.83151
-37.24059
-37.71595
-35.886962
-29.747488
-42.504148
-31.911922
-34.875223
-39.767894
-35.990122
-52.313399
-40.268931
-47.572675
-42.099517
-33.992652
-33.657982
-26.98233
-31.023033
-28.144673
-31.633281
-28.830975
-32.698747
-36.00821
-33.021764
-37.921429
-27.363318
-33.686574
-40.498046
-29.410146
-38.397284
-40.295982
-43.453095
-29.737096
-35.409676
-49.094059
-32.404831
-45.616146
-57.809154
-57.207834
-64.187377
-48.393125
-52.444481
-57.140192
-32.494047
0
-30.234826
-22.626931
-34.016054
-27.838973
-26.625808
-39.144298
-38.111988
-50.694881
-37.506092
-42.733244
-45.032509
-33.152768
-43.088817
-45.581352
-50.076405
-60.49392
-40.505485
-48.456231
-55.719208
-31.09745
-23.954764
-24.732909
-21.560796
-29.179872
-25.634037
-26.201289
0
0
0
0
0
0
0
0
0
0
0
0
0
0
0
0
0
0
0
0
0
0
0
0
0
0
0
0
0
0
0
0
0
0
0
0
0
0
0
0
0
0
0
0
0
0
0
0
0
-148.07539
-135.31117
0
0
-147.98535
-127.06714
0
-137.64394
-134.20371
-118.74284
0
-145.38343
-126.20066
-97.502644
-184.24077
-168.20432
-184.65954
-184.16225
-179.53369
-177.9195
-184.8647
-153.65255
0
-130.83697
-169.8929
-160.24383
-109.98092
-161.93621
-162.96307
0
0
-172.98481
-159.17055
0
-167.35625
0
0
0
0
0
0
0
0
0
0
0
0
0
0
0
0
0
0
0
0
0
0
0
0
0
0
0
0
0
0
0
0
0
0
0
0
0
-90.041153
0
0
0
0
0
0
0
0
0
0
0
0
0
-99.447346
0
0
0
0
0
0
0
0
0
0
0
0
0
0
0
0
0
0
0
0
0
0
-116.16294
0
0
-133.73109
-155.65139
-161.10311
-164.88931
-145.62325
-147.7968
-155.94153
0
-94.675032
0
0
-112.912
0
0
-116.60455
0
-154.01974
-102.76936
-131.69592
-144.09207
0
0
0
0
-155.19434
-136.94485
0
-143.06403
0
0
0
0
0
0
0
-81.635054
-97.64842
-79.635977
-80.05304
-101.05765
-98.096558
-82.630036
-175.66285
-163.67713
-191.88027
-167.02244
-172.77375
-190.12631
-168.88758
-177.1144
-186.03076
-179.31498
-196.70492
-176.50555
-178.62142
-191.06474
-164.56722
-172.4338
-149.40202
-143.32258
-170.6019
-140.6115
-167.57111
-157.83965
-127.68282
-155.32725
-137.21663
-151.1564
-134.11081
-161.44651
-181.1221
-195.20553
-183.23215
-204.5039
-182.39019
-181.39174
-200.02536
-95.129528
-112.61689
-128.94532
-119.21917
-109.36869
-116.73545
-97.726886
0
-95.341815
-69.615038
-82.014327
0
-52.501217
0
-67.805553
0
-48.416614
0
-65.841461
0
-67.261474
0
0
0
0
0
0
0
0
0
0
0
0
0
0
0
-67.107948
-114.75811
-92.689121
-99.688335
-87.354727
-89.309091
-71.085819
0
0
-40.181414
0
0
0
-64.947842
-91.536032
-80.498166
-63.429966
-62.134289
-53.551763
-74.032114
-102.77608
-75.20606
-58.668828
-58.979804
0
-81.304572
-42.040485
-43.790918
-70.303174
-37.146975
-28.807519
-58.849072
-54.157941
-40.362352
-29.361801
-44.341434
0
-36.414714
-51.202792
0
-47.024077
-50.677171
-65.761785
-51.590208
-43.000758
-56.093225
-59.07605
-30.924912
0
0
0
0
-39.598273
0
-104.24196
-103.95753
-99.892602
-110.68599
-109.33677
-105.56135
-82.848057
-95.780417
-95.541914
-86.872753
-69.487834