/*--------------------------------*- C++ -*----------------------------------*\
  =========                 |
  \\      /  F ield         | OpenFOAM: The Open Source CFD Toolbox
   \\    /   O peration     | Website:  https://openfoam.org
    \\  /    A nd           | Version:  8
     \\/     M anipulation  |
\*---------------------------------------------------------------------------*/
/*   Windows 32 and 64 bit porting by blueCAPE: http://www.bluecape.com.pt   *\
|  Based on Windows porting (2.0.x v4) by Symscape: http://www.symscape.com   |
\*---------------------------------------------------------------------------*/
FoamFile
{
    version     2.0;
    format      ascii;
    class       polyBoundaryMesh;
    location    "constant/air/polyMesh";
    object      boundary;
}
// * * * * * * * * * * * * * * * * * * * * * * * * * * * * * * * * * * * * * //

14
(
    left
    {
        type            patch;
        nFaces          0;
        startFace       15576;
    }
    right
    {
        type            patch;
        nFaces          0;
        startFace       15576;
    }
    back
    {
        type            patch;
        nFaces          0;
        startFace       15576;
    }
    front
    {
        type            patch;
        nFaces          0;
        startFace       15576;
    }
    bottom
    {
        type            wall;
        inGroups        List<word> 1(wall);
        nFaces          162;
        startFace       15576;
    }
    top
    {
        type            patch;
        nFaces          0;
        startFace       15738;
    }
    Building
    {
        type            mappedWall;
        inGroups        List<word> 
2
(
wall
mappedPatch
)
;
        nFaces          757;
        startFace       15738;
        sampleMode      nearestPatchFace;
        sampleRegion    Building;
        samplePatch     buildings_to_air;
    }
    procBoundary3to1
    {
        type            processor;
        inGroups        List<word> 1(processor);
        nFaces          307;
        startFace       16495;
        matchTolerance  0.0001;
        myProcNo        3;
        neighbProcNo    1;
    }
    procBoundary3to4
    {
        type            processor;
        inGroups        List<word> 1(processor);
        nFaces          230;
        startFace       16802;
        matchTolerance  0.0001;
        myProcNo        3;
        neighbProcNo    4;
    }
    procBoundary3to5
    {
        type            processor;
        inGroups        List<word> 1(processor);
        nFaces          172;
        startFace       17032;
        matchTolerance  0.0001;
        myProcNo        3;
        neighbProcNo    5;
    }
    procBoundary3to6
    {
        type            processor;
        inGroups        List<word> 1(processor);
        nFaces          12;
        startFace       17204;
        matchTolerance  0.0001;
        myProcNo        3;
        neighbProcNo    6;
    }
    procBoundary3to8
    {
        type            processor;
        inGroups        List<word> 1(processor);
        nFaces          6;
        startFace       17216;
        matchTolerance  0.0001;
        myProcNo        3;
        neighbProcNo    8;
    }
    procBoundary3to9
    {
        type            processor;
        inGroups        List<word> 1(processor);
        nFaces          38;
        startFace       17222;
        matchTolerance  0.0001;
        myProcNo        3;
        neighbProcNo    9;
    }
    procBoundary3to10
    {
        type            processor;
        inGroups        List<word> 1(processor);
        nFaces          22;
        startFace       17260;
        matchTolerance  0.0001;
        myProcNo        3;
        neighbProcNo    10;
    }
)

// ************************************************************************* //
