/*--------------------------------*- C++ -*----------------------------------*\
  =========                 |
  \\      /  F ield         | OpenFOAM: The Open Source CFD Toolbox
   \\    /   O peration     | Website:  https://openfoam.org
    \\  /    A nd           | Version:  8
     \\/     M anipulation  |
\*---------------------------------------------------------------------------*/
/*   Windows 32 and 64 bit porting by blueCAPE: http://www.bluecape.com.pt   *\
|  Based on Windows porting (2.0.x v4) by Symscape: http://www.symscape.com   |
\*---------------------------------------------------------------------------*/
FoamFile
{
    version     2.0;
    format      ascii;
    class       scalarListList;
    location    "constant/vegetation";
    object      F;
}
// * * * * * * * * * * * * * * * * * * * * * * * * * * * * * * * * * * * * * //


339
(

774
(
0.011404374
0.0059629335
0.0023466834
0.0054836824
0.00029168604
0.018534873
0.00017624758
0.0046172851
0.00047939517
0.0001764329
0.0045837285
4.1058078e-05
0.0018097294
0.0017967432
0.00034700538
0.00048740851
0.0023351414
0.0041938382
0.00037095077
0.0011762992
0.0011770212
0.00012436811
0.00076189031
0.00031657551
0.0001010943
0.00072762482
0.00032268875
0.00029654365
0.00026858028
0.00029450906
0.00032290901
0.00030270337
0.0023551936
0.0042425085
0.0043063555
0.00095977393
0.00037818456
0.00073989081
0.00038193782
0.00022064509
0.00021788429
7.5390451e-05
0.00013027314
0.00038209779
0.0016504295
0.00035013193
0.00022062868
0.00021783764
0.00028317044
0.0005013039
0.00033997795
0.00093851864
0.00046103017
0.00079015522
0.0020657388
0.0029173771
0.0025353914
0.0035016533
0.0035588925
0.0030348982
0.00044145431
0.00055740022
0.00073338593
0.00020480477
0.00021250708
0.00026231825
0.00031804835
0.00025879146
0.00024235245
0.000309166
0.00025201269
0.00019281231
0.00017345654
0.00033812047
0.00027024331
0.00023614302
0.00023777993
0.00028629857
0.00023169806
0.00020426469
0.00021237219
0.00026244692
0.00031886712
0.00025932499
0.00024578038
0.00031147275
0.00025345963
0.0037462262
0.0042817697
0.003493301
0.0029526095
0.003602672
0.00037600203
0.00047912079
0.00047095972
0.00037647308
0.00047913197
0.00046812838
0.00036317744
0.0003890169
0.00044843107
0.00032584672
0.000423461
0.00036124345
0.00051294558
0.00016535815
0.00048175086
0.00045938075
0.00057865816
0.00056133559
0.00051361234
0.00016588661
0.00048356251
0.00017395858
5.6796599e-05
0.00018965905
0.00032375854
0.00037784747
0.0003490344
0.00042578944
0.00047135248
0.00052562504
0.00014719635
0.0003662775
0.0004303849
0.00024294949
0.00039697244
0.0003026677
7.9032183e-05
0.0003019996
0.00024296319
0.00030196131
0.00029614338
0.00032159874
0.00048591109
0.00058029995
0.00057096521
0.00039538617
0.00040773035
0.00043885845
0.00047645863
0.00052838479
0.00055273241
0.0004191995
0.00050018933
0.00046991158
0.00083121105
0.0011087595
0.00078224795
0.00074365938
0.00094870184
0.00073000296
0.00061753917
0.00089901456
0.00068524356
0.00083208503
0.0011037286
0.00078428848
0.00098197049
0.00059163567
0.00069386703
0.00052513425
0.00049345106
0.00039769407
0.00043371196
0.00041016484
0.00039501691
0.00073638599
0.00089780715
0.00071458857
0.00084885764
0.00064498152
0.0006829293
0.00047725124
0.00061754606
0.00051891569
0.00060370417
0.0006723026
0.0005611978
0.038804443
0.0081284097
0.038549717
0.0019353441
4.7538328e-05
4.1493233e-06
0.00010823324
8.3485168e-05
7.0241809e-05
0.0012519391
6.4622605e-06
6.7503361e-05
3.6658607e-05
0.00014232367
0.0012007531
8.2151618e-05
0.00094129257
0.0013451816
0.00010264713
8.9180183e-05
0.0011135268
0.00012337513
0.00084922137
0.00035035502
0.00010010067
0.00070655084
3.1365255e-05
4.0224242e-05
7.4622831e-05
7.3085664e-05
4.2335779e-05
1.3581599e-05
0.00010458999
0.00027633463
1.7235928e-05
0.00011593632
7.1081042e-05
0.00022359139
0.00028086482
0.00020357021
0.00014742094
8.2352829e-05
0.00013087942
0.0019984536
0.0014659543
0.0028615137
0.0016118347
0.0024910078
0.0038903417
0.0035327187
0.00078359157
0.0010036632
0.00061815206
0.00015911483
0.00017185507
0.0016810717
0.00034873523
0.00025787998
0.0014602434
0.00032899801
0.00014620591
0.0001334497
0.0001852219
8.8804323e-05
0.00014386121
0.00023334163
0.00070999866
0.00016289178
6.0142513e-05
7.6740079e-05
0.00086988212
0.0013265643
0.00088858313
9.7190132e-05
0.00019488322
0.00020937524
0.00019601928
9.560648e-05
0.0002099851
0.000799642
0.0012419963
0.00086172468
0.00018575482
0.00024360151
0.00020141733
0.00019515398
0.00018401736
0.00026295162
0.00023029959
0.00021645599
0.00016998221
0.00018396129
0.00015449077
0.00010936749
0.0001211142
0.00016512599
0.00012535328
0.00013956703
9.8286689e-05
8.7779167e-05
7.0950654e-05
0.00010045748
8.6128922e-05
0.00011184718
0.00011542908
9.8977134e-05
0.0028190528
0.0018893303
0.0025484684
0.0018348179
0.0016995493
0.002202246
7.9736866e-05
0.0021605586
0.0026667205
0.0036711763
0.0031914118
0.00036471799
0.00043375139
0.00045619089
0.00028254764
0.00031287998
0.00034658003
0.00030657263
0.00040819197
0.00037718666
0.00012538908
0.00017163113
0.00013282015
0.00020927019
0.00028218013
0.00024856864
0.00018472512
0.00017244512
0.00021780839
6.6495504e-05
3.3092944e-05
0.00018538699
5.3848118e-05
0.00011341785
6.0546896e-05
0.00014080539
6.1558073e-05
0.00018184845
1.8769337e-05
8.5524728e-06
2.5125254e-05
6.1518919e-05
0.00010072226
9.1720505e-05
0.00010882962
2.8343184e-05
8.4259562e-05
8.0465173e-05
0.00011685107
0.00011363556
0.00014639258
0.000361149
0.00042736415
7.9120463e-05
0.00029392166
0.00023304314
3.0780042e-05
5.6293895e-05
4.1106163e-05
1.0778573e-05
4.0341748e-05
3.1904516e-05
6.6735404e-05
7.0631008e-05
8.2628596e-05
2.2029201e-05
5.1242464e-05
6.5501779e-05
9.6379318e-05
0.00010787461
0.0001119629
9.9295508e-05
0.00012185444
0.00012459415
9.0684547e-05
0.00011020078
0.00011689845
9.8025751e-05
0.00012446039
0.00012478343
9.3158313e-05
0.00012309045
0.00012050804
1.3305889e-05
7.7081875e-05
6.8878449e-05
2.2568024e-05
0.0009974117
0.00059187111
0.00069672601
0.00023616482
0.0004507637
0.00030343104
0.00056439
0.0004846268
0.00038657486
7.2655896e-05
6.7343139e-05
5.2853509e-05
0.00013309974
0.00016869953
0.00012157297
9.03097e-05
0.00014855011
0.00010667511
0.00018332737
0.00021241804
0.00014225895
0.00016536825
8.5411001e-05
0.00010970419
0.00014418432
0.00015881869
0.00013834591
5.2396569e-05
0.0001500493
0.00020238322
0.00015349026
0.00015617563
0.00020654232
0.00015547543
0.00014209289
0.00020394279
0.0001487102
0.00020821297
0.00015544501
0.0001530453
7.5547027e-05
7.0862873e-05
0.00458856
0.0022159246
0.01022244
0.017035874
0.0037180641
0.020762073
0.022774934
0.018586969
0.02707206
0.015719333
0.015364136
0.012757831
0.027282568
0.0023051305
0.0010648802
0.010541671
0.0028113923
0.0056707072
0.0017929761
0.0031961954
0.0016711381
0.0012970187
0.0019051408
0.00062190295
0.07817031
0.052933289
0.034076524
0.0035765722
0.0027702061
0.020358313
0.0040993245
0.0089927576
0.0033259369
0.0022189249
0.011423094
0.0028062739
1.0899477e-05
1.092595e-05
1.0738348e-05
1.8051385e-05
1.0789287e-05
1.7867976e-05
1.8119434e-05
1.0862976e-05
1.8053236e-05
1.0840527e-05
1.7919893e-05
1.8370494e-05
7.8296537e-05
7.8533512e-05
7.8252765e-05
8.6637158e-05
8.025031e-05
4.4257545e-05
6.101831e-05
3.802991e-05
8.4365876e-05
8.1008396e-05
6.3405045e-05
6.842687e-05
0.00029993678
7.1628779e-05
7.1632915e-05
5.066969e-05
7.1094216e-05
6.4406816e-05
0.00027068499
0.00013669957
0.00013414504
6.2992352e-05
6.0982243e-05
4.5207232e-05
3.9217985e-05
9.0188105e-05
9.2327143e-05
9.155575e-05
0.00010327302
3.6676435e-06
3.6682315e-06
0.00030410506
0.00027918301
0.00014239764
0.00028979772
0.00012096383
0.00025851167
0.00015938086
6.3675499e-05
6.3425583e-05
0.00014606481
2.8855038e-06
5.1027241e-05
2.4895445e-05
3.5580193e-06
2.4141097e-05
2.4922604e-05
3.5766094e-06
2.4987852e-05
0.00020536122
8.5699841e-05
3.5207554e-06
2.5183325e-05
2.5328189e-05
8.6609624e-05
8.6685665e-05
8.7160222e-05
8.8692276e-05
1.0957091e-05
3.6488087e-06
1.0963342e-05
3.6518145e-06
0.00021824296
8.2125144e-05
0.00025924198
0.00012218058
6.9629693e-05
8.2246608e-05
0.0001864595
0.00011667618
0.00012915681
0.00013170408
8.6384799e-05
2.9175659e-05
0.00016069443
2.8275133e-05
2.9226436e-05
0.0001032057
5.9791891e-05
5.8457457e-05
6.4061992e-05
7.6267092e-05
3.068399e-05
3.0729572e-06
1.2783449e-05
7.1115255e-05
3.1852809e-05
3.2027748e-05
0.00012229966
9.0395656e-05
1.8149058e-05
2.4759396e-05
3.6120899e-06
1.0627632e-05
2.4507454e-05
1.7600212e-05
1.8165785e-05
2.488637e-05
3.6202573e-06
1.0806699e-05
2.4871674e-05
1.8041574e-05
0.00023203125
6.588808e-05
8.840785e-05
7.5611922e-05
5.8867144e-05
7.1529303e-05
3.4137218e-06
1.0802664e-05
1.8458146e-05
2.4833872e-05
1.8174909e-05
2.5662101e-05
7.8628791e-05
8.6236146e-05
7.8693004e-05
8.6603989e-05
8.6633535e-05
7.8074851e-05
0.00013536237
7.8470673e-05
9.1028249e-05
4.5017525e-05
5.0199785e-05
5.5759985e-05
3.8420692e-05
3.1541626e-05
8.6751045e-05
8.160674e-05
7.907017e-05
7.7231606e-05
5.7628471e-05
6.148628e-05
6.6864754e-05
7.3037064e-05
0.00030347029
0.00029531566
7.1900637e-05
7.19001e-05
3.1891356e-05
7.0215754e-05
6.8627678e-05
0.00022092386
0.00026475539
8.1746071e-05
0.00014184762
7.208593e-05
7.2450512e-05
0.00011696492
8.2289795e-05
0.00014155003
8.3551836e-05
2.9004789e-05
2.8705172e-05
6.209083e-05
2.9228789e-05
6.3310996e-05
2.9671827e-05
5.1313406e-05
3.2696046e-05
4.0561398e-05
8.8286149e-05
0.00012643018
9.3174554e-05
9.4674215e-05
5.4518042e-05
6.1326524e-05
0.00011083375
0.00033114536
6.5939589e-06
9.8725568e-06
8.8235463e-06
7.1370915e-06
1.0872363e-05
1.1791241e-05
1.0164545e-05
1.6354256e-05
1.6835646e-05
8.4326502e-06
1.4625002e-05
1.3977873e-05
7.7684493e-05
7.2515195e-05
7.4184338e-05
0.00028241895
0.00025861984
2.3352063e-05
6.6647121e-05
7.1092286e-05
6.8068961e-05
5.7850228e-05
5.9425793e-05
2.5038897e-05
4.9460142e-05
8.4019346e-05
0.00012603291
1.4083467e-06
1.9582282e-06
3.1957162e-06
0.00014232719
5.5448025e-05
3.0777084e-06
0.0001213789
5.3352594e-05
1.0822133e-05
2.5482846e-06
1.3031034e-05
1.741893e-05
0.0001715455
3.4876569e-06
2.1710057e-05
2.3667637e-05
1.3820126e-05
2.6870818e-06
2.0919966e-05
1.8368555e-05
8.4570832e-05
8.3393186e-05
0.00024097298
0.00012505868
0.00019475281
2.2428649e-06
5.6706659e-06
0.00027738751
0.00014121785
0.000137817
8.0222115e-05
3.3047189e-06
9.5479815e-06
0.00015468203
2.545935e-05
2.7723101e-05
2.9525382e-06
9.1965007e-06
1.6646303e-05
2.1999284e-05
2.4554034e-05
4.6655605e-05
2.2563947e-05
0.00024388822
0.00011499892
8.0192212e-05
2.4057181e-06
7.5943312e-06
9.3625169e-06
1.5103802e-05
1.2570957e-05
1.6367344e-05
3.4027133e-06
1.0417824e-05
1.5819356e-05
2.2439588e-05
1.7253749e-05
2.3096683e-05
2.8220243e-06
8.0241214e-06
1.5240135e-05
2.0093061e-05
1.3296642e-05
1.9247246e-05
8.5540799e-05
7.6788861e-05
7.5616797e-05
8.1997257e-05
0.00028587242
0.00025098246
0.00021246945
0.00023244371
2.0223968e-05
1.9270311e-05
4.5173815e-06
7.7167795e-06
1.6481805e-05
7.0306153e-05
6.9290818e-05
8.1083173e-05
2.6299786e-05
2.7060568e-05
6.0918082e-05
2.0852488e-05
2.7877562e-05
2.3623822e-05
2.2984956e-05
4.3306277e-05
8.1220211e-05
8.0845584e-05
0.00013398089
0.018111742
0.023515198
0.028534413
0.0094817383
0.00021304941
0.00064002381
0.00039443253
0.00021861226
0.002380408
0.0016313148
0.0033004087
0.0011010448
0.0015578352
0.00044556397
0.0006248693
0.0021094304
0.0028981868
0.0010972813
0.0018979773
0.0011194384
0.0020450738
0.0033513009
0.0022235865
0.0040738805
)


1019
(
0.0011694361
0.00096982512
0.00041085159
0.00021187903
0.00086893485
0.00091226391
0.00029211475
2.8758197e-07
1.4002688e-08
7.5577931e-07
1.3297196e-08
1.4108277e-06
8.6858424e-07
1.7015413e-06
6.1207957e-07
1.5632157e-06
3.2522911e-07
1.5835161e-06
9.7370788e-07
5.7747325e-07
1.1346964e-07
1.5941416e-08
1.1252875e-07
1.3584747e-07
1.6614052e-08
1.342394e-07
2.0114472e-07
2.7010933e-07
3.5957642e-07
2.9272153e-07
1.7782681e-07
1.0701927e-07
1.072954e-07
1.1819399e-08
8.8743827e-08
7.8670586e-07
7.2514118e-07
6.0964082e-07
6.9205836e-07
5.1370966e-07
3.8214819e-07
4.7065018e-07
5.8576137e-07
5.3748988e-07
1.2406801e-06
3.8821239e-07
3.163918e-07
2.1744372e-07
1.0568926e-06
2.9197472e-07
1.9220544e-07
4.746057e-07
1.1377708e-07
1.8254219e-06
5.7715475e-07
6.4547291e-07
7.3089726e-07
5.9070184e-07
6.7798919e-07
4.0869824e-07
5.4973866e-07
5.0261453e-07
2.0912049e-07
2.2431003e-07
2.3320385e-07
2.4730237e-07
2.8085319e-07
2.5712061e-07
3.7385747e-07
3.3740759e-07
3.5083276e-07
3.0438158e-07
3.1513975e-07
3.2770249e-07
1.8489043e-07
1.5430474e-07
1.6054283e-07
1.3064325e-07
1.1167502e-07
1.3611712e-07
1.1708821e-06
7.6243688e-07
9.0898228e-07
7.5755282e-07
8.3140893e-07
8.7767105e-07
6.9572167e-07
6.3532705e-07
7.2527358e-07
7.9150951e-07
6.624027e-07
7.5694663e-07
3.970413e-07
4.0672634e-07
4.2106449e-07
4.8026703e-07
4.3541499e-07
4.4749463e-07
6.6835788e-07
5.654936e-07
6.4392596e-07
6.1103083e-07
5.501185e-07
6.2444171e-07
7.8610291e-07
5.2292092e-07
5.5591691e-07
1.3907641e-06
1.6444012e-06
1.4468695e-06
1.0140395e-06
1.1847978e-06
1.233281e-06
3.6462738e-07
4.3188878e-07
4.0721131e-07
3.4063212e-07
3.5354663e-07
3.8146076e-07
2.4248818e-07
2.427296e-07
2.7188736e-07
2.6732407e-07
3.2723229e-07
2.9866117e-07
1.6654832e-07
2.1547769e-07
1.8464785e-07
1.3965481e-07
1.1461059e-07
1.5508934e-07
6.0130059e-07
5.7359505e-07
5.981736e-07
6.2091902e-07
5.8103478e-07
6.1383232e-07
7.0448131e-07
6.905797e-07
6.53398e-07
4.33495e-07
4.5136058e-07
4.3438472e-07
5.2894751e-07
5.4485622e-07
4.7813991e-07
4.6652316e-07
5.1680332e-07
5.2831517e-07
1.3429087e-08
6.7298678e-07
1.050159e-08
8.3455727e-08
2.8300824e-07
1.7400998e-07
1.5122835e-07
9.4308371e-09
3.6055958e-08
4.2991128e-08
8.7331703e-08
5.9886211e-08
6.3272356e-08
5.2829201e-07
5.939513e-07
8.3653675e-07
4.0487507e-08
1.2897807e-08
3.8982447e-08
2.4984043e-07
2.6631791e-07
2.3120077e-07
4.2221245e-08
1.4616015e-08
4.4053365e-08
6.4967103e-08
1.5928292e-08
5.4118986e-08
6.4785466e-07
5.6806682e-07
6.0377847e-07
3.1862532e-07
4.3606551e-07
4.2892432e-07
4.7214243e-07
5.6507971e-07
4.6318615e-07
1.2404202e-08
3.6914921e-08
3.7802814e-08
2.120299e-07
1.6036696e-07
1.9572334e-07
1.5265278e-08
4.7996006e-08
4.5954332e-08
9.7717581e-08
1.2507205e-07
8.9764865e-08
1.7034855e-08
5.0236645e-08
5.2544952e-08
6.8641777e-07
6.9674782e-07
6.4511696e-07
3.6258285e-07
3.0094539e-07
3.3540507e-07
5.4282901e-07
5.3489691e-07
5.0245449e-07
3.9954194e-07
4.0332278e-07
3.6954196e-07
5.0774303e-07
4.367221e-07
4.6974519e-07
6.8884659e-08
9.2162549e-08
6.6017781e-08
1.0200442e-07
6.286293e-08
6.4405703e-08
2.7137921e-07
2.4262905e-07
2.3525365e-07
1.6073894e-07
2.0396797e-07
1.9727203e-07
7.2589088e-08
1.1845382e-07
7.5709927e-08
1.2122327e-07
8.1011132e-08
7.8066627e-08
1.2540034e-07
8.5157775e-08
8.9004309e-08
5.73709e-07
5.6986178e-07
6.0797877e-07
3.0673592e-07
3.5672598e-07
3.4179631e-07
3.9165928e-07
4.1101229e-07
3.7655411e-07
5.4508861e-07
5.3294174e-07
5.122534e-07
4.4508811e-07
4.9949949e-07
4.7885976e-07
2.8409266e-06
1.514746e-07
3.2104649e-06
1.3488018e-06
1.6424293e-07
1.7202911e-06
4.3056023e-06
4.6613023e-06
1.2615832e-06
8.5586184e-07
8.9627217e-07
2.4678863e-06
2.6956944e-06
2.3419216e-06
6.7665769e-07
1.5383425e-07
5.4199146e-07
2.0932203e-06
1.6283417e-06
1.9841054e-06
9.8182796e-07
1.2708898e-06
9.1050096e-07
1.6468712e-07
5.0584524e-07
5.2568546e-07
3.5798568e-06
3.0436241e-06
3.3926331e-06
3.945132e-06
4.0807685e-06
3.737679e-06
5.0116675e-06
4.4222094e-06
4.757675e-06
0.0006918403
6.0306891e-06
5.6927169e-06
7.5615691e-06
6.2153964e-06
2.5476399e-06
3.9879234e-06
7.0905319e-06
6.2833308e-06
1.0883861e-05
6.8212675e-06
6.6806677e-06
5.0733382e-06
4.8946971e-06
6.561347e-06
5.649144e-06
5.9519093e-06
6.5761509e-06
6.74689e-06
6.3825616e-06
4.822764e-06
6.3659555e-06
5.7319897e-06
6.0416943e-06
6.7064776e-06
6.6168529e-06
6.3336828e-06
5.3554935e-06
5.4080018e-06
5.0859496e-06
5.8138905e-06
5.6925932e-06
6.0916601e-06
5.4952124e-06
5.1455823e-06
0.002323438
0.00079869174
0.0024317758
0.0048552029
0.0012836215
0.0036166669
7.7494946e-06
1.2117865e-05
7.2415289e-06
1.9990642e-07
3.3296102e-06
1.3151061e-07
4.1939723e-06
1.3203755e-05
1.5154656e-05
9.2772966e-06
2.2196342e-05
1.4426143e-05
1.441474e-05
2.9573542e-06
2.4541965e-06
1.7189373e-06
2.2768294e-06
1.5956053e-06
1.786821e-07
1.41899e-06
1.0666728e-06
1.6517271e-07
1.3382973e-06
1.5255585e-06
9.2818436e-07
9.8343106e-07
9.0910646e-08
7.3039895e-07
2.2692168e-06
5.9406189e-06
5.5340183e-06
4.7861015e-06
4.0159002e-06
3.116054e-06
3.6808377e-06
4.0096659e-06
5.0945085e-06
6.2596184e-06
6.7292312e-06
1.7558179e-06
9.3299838e-06
2.3241791e-06
1.0814157e-05
3.0110368e-06
2.5042469e-06
4.5504264e-06
3.1423199e-06
3.748372e-06
2.0865504e-05
6.4087262e-06
4.8862829e-06
1.7463481e-05
6.0149433e-06
2.7948125e-06
2.6268587e-06
1.9088774e-06
2.0949432e-06
1.3285657e-06
1.1288222e-06
5.3801273e-06
4.531737e-06
5.0852811e-06
4.3128999e-06
4.6012615e-06
4.8518935e-06
3.2791825e-06
3.4588649e-06
5.7316084e-06
5.4450927e-06
6.1264605e-06
5.8335106e-06
7.03973e-06
6.5614325e-06
7.8266276e-06
8.9033986e-06
7.5720806e-06
7.2613397e-06
8.1880599e-06
8.3931196e-06
5.0295665e-06
5.8605286e-06
1.064586e-05
1.1170692e-05
1.2960815e-05
1.2928268e-05
1.646905e-05
1.4981179e-05
8.8972384e-07
5.2236162e-07
5.6316847e-07
1.9496363e-06
2.075069e-06
2.3134402e-06
2.139078e-06
2.7552572e-06
2.5289576e-06
2.8492983e-06
3.540646e-06
3.3641987e-06
2.679666e-06
2.9598747e-06
3.1725463e-06
4.2942821e-06
4.572379e-06
3.9375006e-06
3.2994099e-06
3.6698151e-06
3.4993385e-06
4.0909904e-06
3.5127351e-06
4.2296903e-06
6.8824499e-06
6.5094176e-06
6.352493e-06
5.2276959e-06
4.9203829e-06
5.304855e-06
5.6050423e-06
6.1210766e-06
5.6792096e-06
1.7488311e-07
4.2447959e-06
6.0561849e-06
1.2238237e-07
1.7780843e-06
7.8683214e-08
7.275782e-07
8.5433226e-07
1.5580018e-06
4.2985476e-06
9.3120918e-07
9.8631294e-06
2.0347261e-06
6.6562809e-06
1.282049e-06
3.5833181e-07
5.277872e-07
6.2689106e-06
3.3042116e-06
3.6993973e-07
1.1410857e-07
3.4748596e-07
6.8106048e-07
2.0565181e-07
6.3507346e-07
3.9679911e-07
1.416357e-07
4.2707916e-07
4.6095211e-06
5.3788532e-06
1.6521341e-05
1.7414262e-05
1.0709386e-05
5.0093009e-06
1.4983359e-05
2.7582477e-06
1.0545537e-07
3.1142421e-07
3.2892523e-07
1.9313433e-07
5.382466e-07
5.8411936e-07
1.5283392e-07
4.9764565e-07
4.6068732e-07
5.6835071e-06
2.9721453e-06
3.4731792e-06
3.0399571e-06
6.6303632e-06
1.3545405e-06
1.8494265e-06
1.5907184e-06
1.1392156e-06
9.9333814e-07
1.3400723e-06
6.3073016e-07
8.2730237e-07
5.9136027e-07
1.1413583e-06
1.6971891e-06
1.0815235e-06
1.3715962e-06
9.1464784e-07
9.8854486e-07
2.4887638e-06
1.9049099e-06
2.5618261e-06
6.8254556e-07
1.157661e-06
7.3473685e-07
1.2451182e-06
8.5479378e-07
7.9231601e-07
5.5775353e-06
5.5717685e-06
5.8316981e-06
4.4914151e-06
5.1973162e-06
4.67078e-06
9.5823405e-05
1.8341144e-05
2.140884e-05
0.028864176
0.00057482725
7.5596574e-05
0.002509252
4.3035881e-05
0.00038923266
0.00057971446
0.0025000819
0.00041845114
0.00052889993
8.2889069e-05
0.00050877832
0.0003892828
7.9740293e-05
0.00056377364
0.00030011509
0.00033376278
0.00033401882
0.0014812863
0.0003596196
0.00031643657
0.00047883279
0.00035985281
0.00038485381
0.00031112171
0.00032098133
0.00032941645
0.00033035844
0.00032973809
0.00032967749
0.0025473732
0.0021569041
0.0022473591
0.00204605
0.0017572805
0.0020530416
0.0025320503
0.002309573
0.0023286145
0.00035925896
0.00037452224
0.00041339741
0.00035224001
0.0004252637
0.00037494764
0.00079108639
0.0004643088
0.0005840285
0.00055566855
0.00060610637
0.00058856399
0.0002225157
8.0703005e-05
0.00023732691
0.00020451392
6.0154208e-05
0.00019933569
0.00036197562
0.00039526815
0.00036776268
0.00078698501
0.00053441024
0.00069812272
0.00050779445
0.00052327509
0.00065787031
0.00051960505
0.00049477346
0.00055185478
8.3228961e-05
0.00024360943
0.00024445541
0.00029612048
0.00041627258
0.00031710371
7.3314224e-05
0.00023553045
0.0002209772
0.00033743879
0.00032539845
0.00034415982
0.00057278205
0.00060754258
0.0005970084
0.00044859393
0.00042563005
0.0004576561
0.00055681594
0.00055160027
0.00057742735
0.00047873694
0.00052185888
0.00049006334
0.00069080104
0.00076823756
0.00067298224
0.00056141859
0.00071741259
0.00062739272
0.00036468777
0.0005631066
0.00038837006
0.00056986317
0.00039226888
0.0003955661
0.00047430717
0.00038163652
0.00035839541
0.0004320891
0.00040159736
0.00039972478
0.00068938017
0.00076681854
0.00067425753
0.00073720343
0.00061793484
0.00064937644
0.00047066337
0.00057051631
0.00050777694
0.00058256926
0.00061257611
0.0005453509
0.0010104501
0.0023321298
0.0017537893
0.0053837277
0.0013540465
0.0038631878
0.0017131266
0.00016728126
0.0010377673
0.0010045712
0.00056377339
0.027976615
0.034679469
0.07190101
0.132965
0.037591077
0.099931099
0.083903315
0.0015515058
0.002118118
0.0013253316
0.0014531241
0.0017626935
0.00038713589
0.00037863679
0.00031994496
0.0003669245
0.00037670295
0.00028803978
0.00047742794
4.3531715e-05
0.00029215133
0.0002557194
0.00030310704
0.00026386059
0.00030891171
0.00027442176
0.00031924749
0.0017827318
0.00036555511
0.00042795092
0.00046570663
0.0019855566
0.00044483889
0.00045678109
0.0018056911
0.00035092713
0.00034116284
0.00033315714
0.00029108181
0.000348304
0.000356616
0.00039001844
0.00036227614
0.00038674061
0.00035745431
0.00036219493
0.00031073908
0.00033676042
0.00032494062
0.00034906681
0.00035265951
0.00033795794
0.00034415351
0.00035723529
0.00032395102
0.00032773866
0.00025811137
0.0002953367
0.00029604906
0.00028755277
0.00028163846
0.00025850417
0.00027428277
0.00026851677
0.0003056094
0.00029752788
0.00029456601
0.00027319042
0.00028625584
0.00028343532
0.00031519375
0.00032709987
0.00032256421
0.00033190459
0.00032736928
0.00038749881
0.00042556512
0.00045749875
0.00040849347
0.0005121338
0.00048444356
0.00046538607
0.00057384523
0.00056895454
0.00045783786
0.00053528352
0.00055579618
0.00043604873
0.00056763964
0.00054205928
0.00039894532
0.00039863504
0.00049852643
0.00032077532
0.00039409775
0.00033417438
0.00031869339
0.00038204179
0.00033023818
0.00030573692
0.00030673356
0.00035903604
0.0003573419
0.00040183065
0.00041322113
6.855489e-05
0.0020901734
3.3558856e-05
0.00023831662
2.5419641e-05
0.00011187832
0.00011240909
0.00021277662
0.00017929014
0.00016071543
0.00025494363
0.00026020722
0.00035464285
0.00020197515
6.0436746e-05
0.00017868843
5.2034227e-05
0.00013282222
0.00015518329
0.00032844039
0.00038143439
0.00029018447
0.00038152909
0.00021790177
0.00025426435
0.020374639
0.040048146
0.0369814
0.0077601832
0.067408322
0.027223006
0.00027670432
6.5802752e-05
8.6689709e-05
0.00042532949
0.0005850284
0.001473489
0.0016211726
0.00057902067
0.0014987506
0.00064811322
0.0048636375
0.00049803112
0.00038612881
0.00072158204
0.00020476882
0.00033675448
0.00028470341
0.00063764108
0.00075981008
0.00073040229
0.00063688196
0.00076986726
0.021641025
0.059415591
0.018720859
0.0041738512
0.0009220832
0.00053335047
0.0004334972
0.00039269908
0.0016429403
0.00046610133
0.00029414659
0.00022461826
0.00057963747
0.00054973486
0.0010031465
0.00016698605
0.0069051643
2.4657307e-06
2.7722327e-06
3.5664282e-06
4.0963217e-06
2.3671218e-06
3.9323571e-06
4.6113067e-06
2.8850933e-06
4.8093313e-06
3.3825885e-06
5.9834166e-06
5.7580398e-06
1.5135977e-05
1.2910425e-05
1.4150032e-05
1.2504886e-05
8.5749677e-07
8.9109747e-07
1.4737685e-05
1.5200172e-05
1.0187548e-06
1.8803132e-05
5.8741435e-06
7.5877588e-07
5.1963053e-06
6.1094395e-06
9.9609057e-07
7.0265358e-06
2.0867774e-05
1.0335335e-06
9.0427318e-06
7.5182338e-06
2.5657254e-06
8.2416952e-07
2.6673296e-06
9.2514179e-07
6.9238446e-06
3.6154669e-05
6.1216848e-06
7.2053359e-06
8.6785955e-06
1.0114942e-06
4.5574051e-06
1.1494301e-05
9.5610716e-06
4.2628673e-06
5.6443804e-06
7.9124112e-07
2.2699693e-06
5.4184792e-06
3.770964e-06
4.4330968e-06
6.3617145e-06
9.5992334e-07
3.0156688e-06
6.6551544e-06
5.050716e-06
1.0599435e-06
3.1803854e-06
6.5999476e-06
8.3323076e-06
5.3703811e-06
8.0819207e-06
1.6456781e-05
1.731352e-05
2.306288e-05
1.3946833e-05
1.0640124e-05
5.0771947e-05
6.6506263e-06
6.3836635e-06
1.3571094e-05
7.5139248e-06
7.9849134e-06
1.0354524e-05
1.3138885e-06
1.9902358e-06
1.7329882e-06
1.411354e-06
2.1717171e-06
2.3377758e-06
2.0812675e-06
3.3069786e-06
3.4578686e-06
1.6523256e-06
2.8807964e-06
2.7466958e-06
6.5866865e-05
5.8355579e-05
4.7360836e-06
1.1933729e-05
1.244964e-05
5.8682584e-06
5.0428259e-06
9.9275873e-06
2.8549896e-07
3.9341575e-07
6.3556509e-07
2.9620726e-05
1.1295311e-05
6.0684741e-07
2.4791126e-05
1.0773257e-05
2.2085773e-06
5.0047059e-07
2.6354899e-06
3.4487951e-06
3.5759791e-05
1.5062774e-05
7.2686454e-07
4.3567099e-06
4.9784701e-06
2.8340637e-06
5.2604825e-07
4.1615718e-06
3.6260609e-06
4.139071e-05
4.4642879e-07
1.1400684e-06
6.6518714e-07
1.9017801e-06
3.3232168e-05
5.1380212e-06
5.8655242e-06
5.7904655e-07
1.816022e-06
3.3833874e-06
1.0130806e-05
4.3790603e-06
4.9117258e-06
1.6189065e-05
9.338928e-06
1.3861724e-05
4.4783473e-06
4.7513476e-07
1.4934921e-06
1.8866183e-06
3.0284045e-06
2.4788811e-06
3.2578302e-06
8.397308e-06
1.1637226e-05
4.1103122e-05
1.7270879e-05
6.956538e-07
2.1745692e-06
3.1604293e-06
4.558071e-06
3.6126589e-06
4.7655512e-06
5.5216793e-07
1.5730678e-06
3.0183887e-06
3.9750109e-06
2.6139699e-06
3.7981948e-06
4.6625925e-05
5.0780957e-05
4.1361058e-06
3.8835304e-06
9.1651238e-07
1.5692059e-06
5.3728153e-06
5.6157272e-06
1.301737e-05
6.7446706e-06
9.0248735e-06
4.1723619e-06
5.5865425e-06
4.6991126e-06
4.5603443e-06
8.6665207e-06
8.4066003e-06
0.003344339
0.00023072278
6.7639932e-05
9.8295666e-05
3.2481634e-05
0.00015094703
)


768
(
0.0009618716
0.0082555213
0.0018973329
0.0041620559
0.0017065844
0.0033822774
0.0028612192
0.0002120675
0.020140887
0.013731777
0.0086563917
0.0001803138
0.0048561836
0.006612601
1.8729518e-05
0.000730994
0.00068673905
9.9806325e-05
0.00017716859
0.0010148645
0.0038423171
0.00010922726
0.010009372
0.0071485644
0.00023887743
0.0010769129
0.0001345228
0.00011616603
0.00069096433
0.00010746549
0.00010195228
7.1514767e-05
8.6420968e-05
0.00010549818
9.1570012e-05
0.0010967605
0.0046221004
0.017296659
0.00060456922
0.00015653061
0.00063132043
0.00013271156
6.9008613e-05
6.9055279e-05
1.9673595e-05
3.4891128e-05
0.00012999737
0.00058246145
0.00010928543
6.7882536e-05
6.5754605e-05
7.6678914e-05
0.00016865953
0.00010254884
0.00053693713
0.00015175993
0.00035019057
0.00081275414
0.0015120213
0.0011484934
0.0024203182
0.002344398
0.0016520133
0.00014095555
0.00019564974
0.00030429765
6.5981863e-05
6.8022102e-05
8.4388667e-05
0.00010752631
8.4434139e-05
8.0395921e-05
0.00010564135
8.3070688e-05
5.4317914e-05
4.7643631e-05
8.8406678e-05
7.4334679e-05
6.3859575e-05
6.8213319e-05
8.1358069e-05
6.4576748e-05
5.8970113e-05
6.2747917e-05
8.2955584e-05
0.0001018305
8.0285621e-05
7.24605e-05
9.6931565e-05
7.6656394e-05
0.0035063223
0.011249518
0.0046264565
0.001673625
0.002679853
0.0001327873
0.00017547693
0.00017567971
0.00012487414
0.00017154435
0.00016267956
0.00011702433
0.00012607428
0.0001509531
9.4800092e-05
0.00013219105
0.00010793656
0.020548513
0.049335585
0.027746555
0.00017870935
0.00025037473
0.00025516339
0.009613853
0.001533552
0.0036618834
7.6873222e-05
3.3179611e-05
0.0001060379
9.1115824e-05
0.00011410807
0.00010261325
0.00017107302
0.00023536484
0.00025076764
0.00055843011
0.00065921474
0.0014655922
0.00010558314
0.00020663207
0.0001634681
6.1639949e-05
0.00033132927
0.00018189583
8.3292664e-05
8.309284e-05
9.2262497e-05
0.00017072187
0.0002390883
0.00022428278
0.0001193953
0.0001268049
0.00014091994
0.00016193503
0.00018990908
0.00020742631
0.00013005216
0.00017265379
0.00015622267
0.015029275
0.010397826
0.016463704
0.00038090303
0.0006663747
0.00040181461
0.00039086784
0.00069955273
0.00040497037
0.0089852113
0.004031288
0.0042808494
0.0021957974
0.00095564357
0.0019616658
0.00035446691
0.00050582739
0.00028394752
0.00013790343
0.00013241677
0.00012155809
0.00035174156
0.00046685955
0.00031940007
0.000407041
0.00025578441
0.00028687018
0.00015733609
0.00022807617
0.00017802984
0.00022710487
0.00026178427
0.00020117074
0.011844154
0.0045947414
0.0019847387
0.0094869156
0.012662225
0.017574238
0.0025846208
0.0017639212
6.606376e-05
1.6221852e-06
4.0328616e-05
2.6867639e-05
2.5582585e-05
0.0008484081
2.6538108e-06
2.604788e-05
3.8166823e-05
4.473058e-05
0.00047646465
2.6549333e-05
0.00035613297
0.00079376369
3.3755749e-05
3.3722299e-05
0.00045942729
0.0018921402
0.0043939655
0.00040986072
0.00062971457
0.0023887499
1.2126625e-05
1.5411678e-05
2.5363228e-05
2.5282816e-05
1.7187064e-05
7.1747069e-06
5.3800823e-05
0.00025722059
1.0276982e-05
6.6544278e-05
2.1424051e-05
7.5693911e-05
9.6732327e-05
6.8129441e-05
4.7218619e-05
2.4757795e-05
4.1247613e-05
0.0014571071
0.00064807522
0.0037004826
0.0018426082
0.0048235173
0.0068187678
0.011820925
0.00042526502
0.00077257023
0.00036101994
5.0964498e-05
5.5357297e-05
0.00069512804
0.00012523995
9.0510767e-05
0.00059883046
0.00011822883
4.6464691e-05
4.2005995e-05
6.4722983e-05
2.7150376e-05
4.6381591e-05
8.0746429e-05
0.00025459392
5.350622e-05
1.7576215e-05
2.2712218e-05
0.00043208542
0.00068513016
0.00040320257
3.3977617e-05
7.0029894e-05
8.2782999e-05
8.8611926e-05
3.4103165e-05
8.5728571e-05
0.00030759944
0.0005687939
0.00035870308
6.1013154e-05
8.3212305e-05
6.6628504e-05
6.3065778e-05
5.9457919e-05
9.0354778e-05
7.6591361e-05
7.1911281e-05
5.5309238e-05
6.074706e-05
4.9705754e-05
3.364606e-05
3.7707811e-05
5.3726464e-05
3.9285913e-05
4.433993e-05
2.9858026e-05
2.6321678e-05
2.1007704e-05
3.0654176e-05
2.5855358e-05
3.455886e-05
3.5790634e-05
3.0143202e-05
0.0025682345
0.0011304086
0.0017529641
0.00085569441
0.00086094987
0.0012165436
2.4451535e-05
0.0010296384
0.0015418007
0.0039453747
0.0023978776
0.00013022974
0.00016444298
0.00017204725
0.00010031454
0.00011468274
0.00012900904
0.00010972848
0.00015460497
0.0001419111
3.9679034e-05
5.6825434e-05
4.2959246e-05
7.1255002e-05
0.00010167806
8.7746108e-05
6.1802203e-05
5.8294208e-05
7.5339153e-05
1.9730545e-05
9.5672836e-06