/*--------------------------------*- C++ -*----------------------------------*\
  =========                 |
  \\      /  F ield         | OpenFOAM: The Open Source CFD Toolbox
   \\    /   O peration     | Website:  https://openfoam.org
    \\  /    A nd           | Version:  8
     \\/     M anipulation  |
\*---------------------------------------------------------------------------*/
/*   Windows 32 and 64 bit porting by blueCAPE: http://www.bluecape.com.pt   *\
|  Based on Windows porting (2.0.x v4) by Symscape: http://www.symscape.com   |
\*---------------------------------------------------------------------------*/
FoamFile
{
    version     2.0;
    format      ascii;
    class       labelListList;
    location    "constant/vegetation";
    object      globalFaceFaces;
}
// * * * * * * * * * * * * * * * * * * * * * * * * * * * * * * * * * * * * * //


339
(

774
(
1949
2627
2628
2652
3389
3493
3498
3499
3500
3501
3502
3503
3504
3510
3511
3515
3516
3517
3518
3519
3520
3521
3522
3523
3524
3525
3526
3527
3537
3538
3539
3540
3541
3542
3543
3544
3545
3546
3547
3548
3549
3555
3556
3557
3558
3559
3560
3561
3562
3563
3564
3565
3566
3567
3568
3569
3570
3571
3572
3573
3574
3575
3576
3577
3578
3579
3580
3581
3582
3583
3584
3592
3593
3594
3595
3596
3597
3598
3599
3600
3601
3602
3603
3604
3605
3606
3607
3608
3609
3610
3620
3621
3622
3623
3624
3631
3632
3633
3634
3635
3636
3637
3638
3639
3643
3644
3645
3646
3649
3650
3652
3653
3654
3658
3660
3662
3665
3667
3669
3676
3678
3680
3682
3683
3684
3688
3690
3692
3694
3695
3696
3701
3703
3705
3707
3709
3710
3713
3715
3716
3718
3720
3721
3724
3726
3727
3730
3731
3732
3736
3737
3738
3739
3740
3741
3745
3746
3747
3748
3749
3750
3757
3758
3759
3766
3767
3768
3772
3773
3774
3778
3779
3780
3784
3785
3786
3790
3791
3792
3793
3799
3800
3833
3834
3835
3836
3837
3838
3839
3840
3841
3842
3843
3844
3845
3846
3847
3848
3849
3850
3851
3852
3853
3854
3855
3856
3857
3858
3859
3860
3861
3862
3863
3864
3865
3866
3867
3868
3869
3870
3871
3872
3873
3874
3875
3876
3877
3878
3879
3880
3881
3882
3883
3884
3885
3886
3887
3888
3889
3890
3891
3892
3893
3894
3895
3896
3897
3898
3899
3900
3901
3902
3903
3904
3905
3906
3907
3908
3909
3910
3911
3912
3913
3914
3915
3916
3917
3918
3919
3920
3921
3922
3923
3924
3925
3926
3927
3928
3929
3930
3931
3932
3933
3934
3935
3936
3937
3938
3939
3940
3941
3942
3943
3944
3945
3946
3947
3948
3949
3950
3951
3952
3953
3954
3955
3956
3957
3958
3959
3960
3961
3962
3963
3964
3965
3966
3967
3968
3969
3970
3971
3972
3973
3974
3975
3976
3977
3978
3979
3980
3981
3982
3983
3984
3985
3986
3987
3988
3989
3990
3991
3992
3993
3994
3995
3996
3997
3998
3999
4000
4001
4002
4003
4004
4005
4006
4007
4008
4009
4010
4011
4012
4013
4014
4015
4016
4017
4018
4019
4020
4021
4022
4023
4024
4025
4026
4027
4028
4029
4030
4031
4032
4033
4034
4035
4036
4037
4038
4039
4040
4041
4042
4043
4044
4045
4046
4047
4048
4049
4050
4051
4052
4053
4054
4055
4056
4057
4058
4059
4060
4061
4062
4063
4064
4067
4073
4075
4076
4077
4082
4090
4124
4957
4983
5348
5350
5378
5387
5400
5402
5406
5409
5410
5411
5412
5413
5415
5416
5417
5420
5421
5429
5430
5434
5437
5438
5446
5452
5454
5455
5492
5493
5494
5495
5496
5497
5498
5499
5500
5501
5502
5503
5504
5505
5506
5507
5508
5509
5512
5513
5515
5517
5518
5520
5521
5522
5523
5524
5525
5526
5527
5528
5529
5530
5531
5532
5533
5534
5535
5536
5537
5538
5539
5540
5541
5542
5543
5544
5545
5546
5547
5548
5549
5550
5551
5553
5554
5555
5556
5557
5558
5559
5560
5563
5564
5565
5566
5567
5568
5570
5571
5572
5573
5574
5575
5576
5577
5578
5579
5580
5581
5582
5583
5584
5585
5586
5587
5588
5589
5590
5591
5592
5593
5594
5595
5596
5597
5598
5599
5600
5601
5603
5604
5605
5606
5607
5608
5609
5610
5611
5612
5613
5614
5615
5616
5617
5618
5620
5621
5623
5624
5625
5626
5627
5628
5629
5630
5631
5632
5633
5634
5635
5636
5638
5639
5640
5641
5647
5648
5649
5652
5653
5656
5657
5658
5659
5662
5663
5664
5665
5666
5667
5668
5669
5670
5671
5672
5673
5674
5675
5676
5677
5678
5679
5680
5681
5682
5683
5684
5685
5686
5687
5688
5689
5690
5691
5692
5693
5694
5695
5696
5702
5738
5739
5740
5741
5742
5743
5744
5745
5746
5747
5748
5749
5750
5751
5752
5761
5762
5767
5771
5775
5776
5781
5782
5784
5785
5786
5787
5792
5794
5798
5799
5800
5803
5805
5806
5809
5811
5812
5813
5815
5818
5819
5820
5821
5823
5824
5825
5827
5829
5834
5835
5837
5838
5839
5843
5844
5845
5846
5850
5851
5852
5853
5854
5855
5856
5857
5859
5860
5862
5864
5865
5866
5868
5872
5873
5874
5875
5876
5877
5892
5893
5894
5895
5896
5897
5898
5899
5900
5901
5902
5903
5904
5905
5908
5909
5928
5929
5930
5931
5940
5941
5948
5958
5961
5963
5964
5967
5972
5973
5974
5977
5978
5979
5980
5981
5982
5984
5985
6014
6025
6027
6028
6030
6033
6034
6036
6038
6039
6040
6041
6050
6051
6057
6059
6061
6065
6066
6067
6068
6069
6071
6072
)


1019
(
441
442
443
444
472
473
474
484
485
486
487
488
489
490
491
492
493
494
495
496
497
498
499
500
501
502
503
504
505
506
507
508
509
510
511
512
513
514
515
516
517
518
519
520
524
525
526
527
528
529
530
531
532
533
534
535
536
537
538
539
540
541
546
547
548
549
550
551
552
553
554
555
556
557
558
559
560
561
562
563
564
565
566
567
568
569
570
571
572
573
574
575
576
577
578
579
580
581
584
585
586
587
588
589
590
591
592
594
595
596
597
598
599
605
606
607
608
609
610
611
612
613
614
615
616
617
618
619
620
621
622
623
624
625
626
627
628
629
630
631
632
633
634
635
636
637
638
639
640
646
647
648
649
650
651
652
653
654
655
656
657
658
664
666
667
670
671
672
673
674
675
676
677
678
679
680
681
682
683
684
685
686
687
688
689
690
691
692
693
710
711
712
713
714
715
716
717
718
719
720
721
738
739
740
741
742
743
744
745
746
747
748
749
750
751
752
763
764
765
766
767
768
772
773
774
775
776
777
778
779
780
781
782
783
784
785
786
787
788
789
790
791
792
793
794
795
796
797
798
799
800
801
848
851
863
870
871
891
909
916
987
988
989
1030
1031
1032
1036
1037
1038
1054
1055
1056
1060
1061
1062
1063
1064
1065
1084
1085
1086
1090
1091
1092
1093
1094
1095
1542
1554
1558
1586
1587
1620
1621
1625
1627
1685
1686
1687
1688
1689
1690
1691
1692
1767
1768
1769
1774
1849
1850
1851
1858
1859
1860
1861
1862
1863
1909
1910
1911
1918
1920
2627
2628
2653
2654
2655
2656
2666
2667
2668
2669
2670
2671
2675
2678
2682
2683
2684
2685
2686
2693
2694
2695
2696
2697
2698
2699
2700
2701
2702
2703
2704
2705
2706
2707
2713
2714
2715
2719
2720
2721
2722
2723
2728
2729
2731
2732
2733
2734
2735
2736
2737
2745
2746
2747
2754
2756
2757
2758
2759
2773
2774
2775
2776
2777
2778
2779
2780
2781
2784
2785
2786
2787
2788
2789
2790
2791
2792
2793
2794
2796
2797
2798
2799
2800
2818
2819
2820
2826
2827
2828
2829
2830
2831
2839
2840
2841
2846
2847
2848
2849
2850
2851
2852
2853
2854
2855
2856
2857
2864
2865
2866
2867
2868
2869
2870
2871
2872
2884
2885
2886
2887
2888
2889
2890
2891
2892
2921
2922
2923
2924
2926
2927
2928
2930
2931
2932
2933
2934
2935
2936
2938
2939
2940
2942
2943
2944
2945
2946
2948
2949
2950
2951
2952
2953
2955
2964
2965
2966
2967
2968
2969
2970
2971
2972
2973
2975
2976
2977
2978
2979
2980
2982
2984
2985
2986
2991
2994
2995
2996
2997
2998
2999
3000
3001
3002
3010
3011
3012
3013
3014
3015
3016
3017
3018
3019
3020
3021
3022
3023
3024
3029
3030
3031
3032
3033
3034
3389
3423
3446
3493
3505
3506
3507
3508
3509
3512
3513
3514
3528
3529
3530
3531
3532
3533
3534
3535
3536
3550
3551
3552
3553
3554
3585
3586
3587
3588
3589
3590
3591
3611
3612
3613
3614
3615
3616
3617
3618
3619
3625
3626
3627
3628
3629
3630
3640
3641
3642
3647
3648
3651
3655
3656
3657
3659
3661
3663
3664
3666
3668
3670
3671
3672
3673
3674
3675
3677
3679
3681
3685
3686
3687
3689
3691
3693
3697
3698
3699
3700
3702
3704
3706
3708
3711
3712
3714
3717
3719
3722
3723
3725
3728
3729
3733
3734
3735
3742
3743
3744
3751
3752
3753
3754
3755
3756
3760
3761
3762
3763
3764
3765
3769
3770
3771
3775
3776
3777
3781
3782
3783
3787
3788
3789
3793
3794
3795
3797
3798
3801
3802
4075
4076
4077
4082
4087
4088
4089
4090
4123
4124
4125
4131
4132
4136
4138
4141
4142
4143
4144
4145
4146
4147
4148
4149
4150
4151
4152
4153
4154
4155
4158
4161
4162
4163
4164
4165
4166
4167
4168
4169
4171
4172
4173
4177
4178
4179
4180
4181
4182
4183
4184
4185
4186
4187
4188
4189
4190
4191
4192
4193
4194
4195
4196
4197
4198
4199
4200
4201
4204
4205
4206
4207
4208
4209
4210
4211
4212
4213
4214
4225
4226
4227
4228
4229
4230
4231
4232
4233
4234
4235
4236
4237
4238
4239
4240
4241
4242
4243
4244
4245
4246
4247
4248
4249
4250
4251
4256
4257
4258
4259
4260
4261
4262
4285
4286
4288
4292
4293
4296
4332
4334
4335
4346
4347
4348
4365
4366
4367
4426
4427
4428
4429
4430
4431
4502
5348
5349
5350
5374
5375
5381
5382
5383
5384
5387
5389
5390
5391
5392
5393
5397
5401
5402
5405
5406
5407
5411
5412
5413
5414
5415
5416
5417
5419
5420
5422
5428
5429
5430
5431
5433
5434
5435
5437
5438
5441
5444
5450
5490
5492
5493
5494
5495
5496
5497
5498
5499
5500
5501
5502
5503
5509
5513
5530
5533
5538
5539
5547
5548
5550
5551
5553
5554
5555
5556
5557
5558
5562
5563
5564
5565
5571
5572
5573
5574
5586
5587
5588
5589
5595
5596
5597
5599
5600
5604
5605
5606
5607
5608
5609
5610
5611
5612
5613
5614
5615
5624
5625
5626
5627
5628
5629
5640
5641
5646
5648
5649
5671
5681
5682
5683
5684
5686
5688
5738
5739
5740
5741
5742
5743
5744
5745
5746
5747
5748
5749
5761
5762
5767
5781
5782
5783
5784
5785
5792
5794
5798
5799
5800
5803
5805
5806
5809
5811
5812
5813
5815
5816
5818
5819
5820
5821
5823
5824
5825
5837
5838
5839
5850
5851
5852
5853
5854
5855
5856
5857
5858
5859
5860
5861
5862
5863
5864
5872
5873
5874
5875
5876
5877
5885
5887
5888
5889
5892
5893
5894
5895
5896
5897
5898
5899
5900
5901
5902
5903
5930
5931
5940
5941
5948
5958
5972
5973
5974
5975
5976
5977
5978
5979
5980
5981
5996
6028
6038
6041
6050
6062
6068
)


768
(
443
1949
2366
2627
2628
2652
2657
3389
3493
3498
3499
3500
3501
3502
3503
3504
3510
3511
3515
3516
3517
3518
3519
3520
3521
3522
3523
3524
3525
3526
3527
3537
3538
3539
3540
3541
3542
3543
3544
3545
3546
3547
3548
3549
3555
3556
3557
3558
3559
3560
3561
3562
3563
3564
3565
3566
3567
3568
3569
3570
3571
3572
3573
3574
3575
3576
3577
3578
3579
3580
3581
3582
3583
3584
3592
3593
3594
3595
3596
3597
3598
3599
3600
3601
3602
3603
3604
3605
3606
3607
3608
3609
3610
3620
3621
3622
3623
3624
3631
3632
3633
3634
3635
3636
3637
3638
3639
3643
3644
3645
3646
3649
3650
3652
3653
3654
3658
3660
3662
3665
3667
3669
3676
3678
3680
3682
3683
3684
3688
3690
3692
3694
3695
3696
3701
3703
3705
3707
3709
3710
3713
3715
3716
3718
3720
3721
3724
3726
3727
3730
3731
3732
3736
3737
3738
3739
3740
3741
3745
3746
3747
3748
3749
3750
3757
3758
3759
3766
3767
3768
3772
3773
3774
3778
3779
3780
3784
3785
3786
3790
3791
3792
3793
3795
3797
3798
3799
3800
3802
3833
3834
3835
3836
3837
3838
3839
3840
3841
3842
3843
3844
3845
3846
3847
3848
3849
3850
3851
3852
3853
3854
3855
3856
3857
3858
3859
3860
3861
3862
3863
3864
3865
3866
3867
3868
3869
3870
3871
3872
3873
3874
3875
3876
3877
3878
3879
3880
3881
3882
3883
3884
3885
3886
3887
3888
3889
3890
3891
3892
3893
3894
3895
3896
3897
3898
3899
3900
3901
3902
3903
3904
3905
3906
3907
3908
3909
3910
3911
3912
3913
3914
3915
3916
3917
3918
3919
3920
3921
3922
3923
3924
3925
3926
3927
3928
3929
3930
3931
3932
3933
3934
3935
3936
3937
3938
3939
3940
3941
3942
3943
3944
3945
3946
3947
3948
3949
3950
3951
3952
3953
3954
3955
3956
3957
3958
3959
3960
3961
3962
3963
3964
3965
3966
3967
3968
3969
3970
3971
3972
3973
3974
3975
3976
3977
3978
3979
3980
3981
3982
3983
3984
3985
3986
3987
3988
3989
3990
3991
3992
3993
3994
3995
3996
3997
3998
3999
4000
4001
4002
4003
4004
4005
4006
4007
4008
4009
4010
4011
4012
4013
4014
4015
4016
4017
4018
4019
4020
4021
4022
4023
4024
4025
4026
4027
4028
4029
4030
4031
4032
4033
4034
4035
4036
4037
4038
4039
4040
4041
4042
4043
4044
4045
4046
4047
4048
4049
4050
4051
4052
4053
4054
4055
4056
4057
4058
4059
4060
4061
4062
4063
4064
4067
4069
4071
4073
4075
4076
4077
4081
4082
4957
4980
5348
5349
5374
5378
5387
5400
5402
5406
5409
5410
5411
5412
5415
5417
5419
5420
5421
5429
5434
5436
5438
5445
5446
5452
5454
5490
5492
5493
5494
5495
5496
5497
5498
5499
5500
5501
5502
5503
5504
5505
5506
5507
5508
5509
5513
5514
5515
5517
5518
5520
5521
5522
5523
5524
5525
5526
5527
5528
5529
5530
5531
5532
5533
5534
5535
5536
5537
5538
5539
5540
5541
5542
5543
5544
5545
5546
5547
5548
5549
5550
5553
5554
5555
5556
5557
5558
5559
5560
5563
5564
5565
5566
5567
5568
5569
5570
5571
5572
5573
5574
5575
5576
5577
5578
5579
5580
5581
5582
5583
5584
5585
5586
5587
5588
5589
5590
5591
5592
5593
5594
5595
5596
5597
5598
5599
5600
5601
5602
5603
5604
5605
5606
5607
5608
5609
5610
5611
5612
5613
5614
5615
5616
5617
5618
5620
5621
5623
5624
5625
5626
5627
5628
5629
5630
5631
5632
5633
5634
5635
5636
5637
5638
5639
5640
5641
5648
5649
5651
5652
5653
5656
5657
5658
5659
5662
5663
5664
5665
5666
5667
5668
5669
5670
5671
5672
5673
5674
5675
5676
5677
5678
5679
5680
5681
5682
5683
5684
5685
5686
5687
5688
5689
5690
5691
5692
5693
5694
5695
5696
5702
5738
5739
5740
5741
5742
5743
5744
5745
5746
5747
5748
5749
5750
5752
5761
5762
5767
5775
5776
5781
5782
5785
5787
5792
5794
5798
5799
5800
5803
5806
5809
5811
5812
5813
5818
5819
5820
5821
5823
5824
5825
5827
5829
5837
5838
5839
5843
5844
5845
5846
5850
5851
5852
5853
5854
5855
5856
5857
5859
5860
5864
5865
5868
5872
5873
5874
5875
5876
5877
5892
5893
5894
5895
5896
5897
5898
5899
5900
5901
5902
5903
5904
5905
5908
5909
5928
5930
5940
5941
5948
5951
5958
5961
5963
5964
5967
5972
5973
5974
5977
5979
5980
5985
6025
6027
6028
6033
6034
6035
6037
6038
6039
6040
6041
6050
6051
6057
6059
6061
6065
6066
6067
6068
6069
6071
6072
)


759
(
443
444
1949
2366
2627
2628
2652
2657
3389
3493
3498
3499
3500
3501
3502
3503
3504
3510
3511
3515
3516
3517
3518
3519
3520
3521
3522
3523
3524
3525
3526
3527
3537
3538
3539
3540
3541
3542
3543
3544
3545
3546
3547
3548
3549
3555
3556
3557
3558
3559
3560
3561
3562
3563
3564
3565
3566
3567
3568
3569
3570
3571
3572
3573
3574
3575
3576
3577
3578
3579
3580
3581
3582
3583
3584
3592
3593
3594
3595
3596
3597
3598
3599
3600
3601
3602
3603
3604
3605
3606
3607
3608
3609
3610
3620
3621
3622
3623
3624
3631
3632
3633
3634
3635
3636
3637
3638
3639
3643
3644
3645
3646
3649
3650
3652
3653
3654
3658
3660
3662
3665
3667
3669
3676
3678
3680
3682
3683
3684
3688
3690
3692
3694
3695
3696
3701
3703
3705
3707
3709
3710
3713
3715
3716
3718
3720
3721
3724
3726
3727
3730
3731
3732
3736
3737
3738
3739
3740
3741
3745
3746
3747
3748
3749
3750
3757
3758
3759
3766
3767
3768
3772
3773
3774
3778
3779
3780
3784
3785
3786
3790
3791
3792
3793
3795
3797
3798
3799
3800
3802
3833
3834
3835
3836
3837
3838
3839
3840
3841
3842
3843
3844
3845
3846
3847
3848
3849
3850
3851
3852
3853
3854
3855
3856
3857
3858
3859
3860
3861
3862
3863
3864
3865
3866
3867
3868
3869
3870
3871
3872
3873
3874
3875
3876
3877
3878
3879
3880
3881
3882
3883
3884
3885
3886
3887
3888
3889
3890
3891
3892
3893
3894
3895
3896
3897
3898
3899
3900
3901
3902
3903
3904
3905
3906
3907
3908
3909
3910
3911
3912
3913
3914
3915
3916
3917
3918
3919
3920
3921
3922
3923
3924
3925
3926
3927
3928
3929
3930
3931
3932
3933
3934
3935
3936
3937
3938
3939
3940
3941
3942
3943
3944
3945
3946
3947
3948
3949
3950
3951
3952
3953
3954
3955
3956
3957
3958
3959
3960
3961
3962
3963
3964
3965
3966
3967
3968
3969
3970
3971
3972
3973
3974
3975
3976
3977
3978
3979
3980
3981
3982
3983
3984
3985
3986
3987
3988
3989
3990
3991
3992
3993
3994
3995
3996
3997
3998
3999
4000
4001
4002
4003
4004
4005
4006
4007
4008
4009
4010
4011
4012
4013
4014
4015
4016
4017
4018
4019
4020
4021
4022
4023
4024
4025
4026
4027
4028
4029
4030
4031
4032
4033
4034
4035
4036
4037
4038
4039
4040
4041
4042
4043
4044
4045
4046
4047
4048
4049
4050
4051
4052
4053
4054
4055
4056
4057
4058
4059
4060
4061
4062
4063
4064
4067
4069
4071
4073
4075
4076
4077
4081
4082
4957
4980
5348
5349
5350
5374
5384
5387
5402
5406
5409
5410
5411
5412
5417
5419
5420
5421
5429
5434
5436
5437
5438
5442
5446
5454
5492
5493
5494
5495
5496
5497
5498
5499
5500
5501
5502
5503
5504
5505
5506
5507
5508
5509
5513
5521
5522
5523
5524
5525
5526
5527
5528
5529
5530
5531
5532
5533
5535
5536
5537
5538
5539
5540
5541
5542
5543
5544
5545
5546
5547
5548
5549
5550
5553
5554
5555
5556
5557
5558
5559
5560
5563
5564
5565
5566
5567
5568
5570
5571
5572
5573
5574
5575
5576
5577
5578
5579
5580
5581
5582
5583
5584
5585
5586
5587
5588
5589
5590
5591
5592
5593
5594
5595
5596
5597
5598
5599
5600
5601
5603
5604
5605
5606
5607
5608
5609
5610
5611
5612
5613
5614
5615
5616
5617
5618
5620
5621
5623
5624
5625
5626
5627
5628
5629
5630
5631
5632
5633
5634
5635
5637
5638
5639
5648
5649
5653
5656
5659
5662
5664
5665
5666
5667
5669
5670
5671
5672
5673
5674
5675
5676
5677
5678
5679
5680
5681
5682
5683
5684
5685
5686
5687
5688
5689
5691
5692
5693
5694
5695
5696
5702
5738
5739
5740
5741
5742
5743
5744
5745
5746
5747
5748
5749
5750
5752
5761
5762
5771
5775
5776
5781
5782
5785
5787
5792
5794
5798
5799
5800
5803
5805
5806
5809
5811
5812
5813
5818
5819
5820
5821
5823
5824
5825
5827
5829
5835
5837
5838
5839
5843
5844
5845
5846
5850
5851
5852
5853
5854
5855
5856
5857
5859
5860
5862
5864
5865
5866
5868
5872
5873
5874
5875
5876
5877
5892
5893
5894
5895
5896
5897
5898
5899
5900
5901
5902
5903
5904
5905
5908
5909
5928
5929
5930
5931
5940
5941
5948
5958
5961
5963
5964
5967
5972
5973
5974
5977
5979
5980
5984
5985
6025
6027
6028
6030
6031
6033
6034
6036
6037
6038
6039
6040
6041
6046
6050
6051
6057
6059
6061
6065
6066
6067
6068
6069
6070
6071
6072
)


691
(
441
443
444
472
1949
1973
1974
2627
2628
2653
2654
3389
3493
3498
3499
3500
3501
3502
3503
3504
3510
3511
3515
3516
3517
3518
3519
3520
3521
3522
3523
3524
3525
3526
3527
3537
3538
3539
3540
3541
3542
3543
3544
3545
3546
3547
3548
3549
3555
3556
3557
3558
3559
3560
3561
3562
3563
3564
3565
3566
3567
3568
3569
3570
3571
3572
3573
3574
3575
3576
3577
3578
3579
3580
3581
3582
3583
3584
3592
3593
3594
3595
3596
3597
3598
3599
3600
3601
3602
3603
3604
3605
3606
3607
3608
3609
3610
3620
3621
3622
3623
3624
3631
3632
3633
3634
3635
3636
3637
3638
3639
3643
3644
3645
3646
3649
3650
3652
3653
3654
3658
3660
3662
3665
3667
3669
3676
3678
3680
3682
3683
3684
3688
3690
3692
3694
3695
3696
3701
3703
3705
3707
3709
3710
3713
3715
3716
3718
3720
3721
3724
3726
3727
3730
3731
3732
3736
3737
3738
3739
3740
3741
3745
3746
3747
3748
3749
3750
3757
3758
3759
3766
3767
3768
3772
3773
3774
3778
3779
3780
3784
3785
3786
3790
3791
3792
3793
3794
3795
3797
3798
3799
3801
3802
3833
3834
3835
3836
3837
3838
3839
3840
3841
3842
3843
3844
3845
3846
3847
3848
3849
3850
3851
3852
3853
3854
3855
3856
3857
3858
3859
3860
3861
3862
3863
3864
3865
3866
3867
3868
3869
3870
3871
3872
3873
3874
3875
3876
3877
3878
3879
3880
3881
3882
3883
3884
3885
3886
3887
3888
3889
3890
3891
3892
3893
3894
3895
3896
3897
3898
3899
3900
3901
3902
3903
3904
3905
3906
3907
3908
3909
3910
3911
3912
3913
3914
3915
3916
3917
3918
3919
3920
3921
3922
3923
3924
3925
3926
3927
3928
3929
3930
3931
3932
3933
3934
3935
3936
3937
3938
3939
3940
3941
3942
3943
3944
3945
3946
3947
3948
3949
3950
3951
3952
3953
3954
3955
3956
3957
3958
3959
3960
3961
3962
3963
3964
3965
3966
3967
3968
3969
3970
3971
3972
3973
3974
3975
3976
3977
3978
3979
3980
3981
3982
3983
3984
3985
3986
3987
3988
3989
3990
3991
3992
3993
3994
3995
3996
3997
3998
3999
4000
4001
4002
4003
4004
4005
4006
4007
4008
4009
4010
4011
4012
4013
4014
4015
4016
4017
4018
4019
4020
4021
4022
4023
4024
4025
4026
4027
4028
4029
4030
4031
4032
4033
4034
4035
4036
4037
4038
4039
4040
4041
4042
4043
4044
4045
4046
4047
4048
4049
4050
4051
4052
4053
4054
4055
4056
4057
4058
4059
4060
4061
4062
4063
4064
4067
4069
4073
4075
4076
4077
4081
4082
4957
4980
5348
5349
5350
5374
5375
5384
5387
5389
5397
5402
5406
5407
5417
5418
5419
5420
5421
5422
5428
5429
5430
5431
5434
5437
5438
5442
5492
5493
5494
5495
5496
5497
5498
5499
5500
5501
5502
5503
5521
5527
5530
5531
5538
5539
5540
5546
5547
5548
5549
5550
5553
5554
5555
5556
5557
5558
5559
5563
5564
5565
5571
5572
5573
5574
5575
5577
5586
5587
5588
5589
5590
5591
5592
5595
5596
5597
5599
5600
5604
5605
5606
5607
5608
5609
5610
5611
5612
5613
5614
5615
5616
5624
5625
5626
5627
5628
5629
5649
5664
5665
5671
5672
5681
5682
5683
5684
5685
5686
5688
5689
5738
5739
5740
5741
5742
5743
5744
5745
5746
5747
5748
5749
5751
5752
5761
5762
5771
5781
5782
5785
5786
5787
5792
5794
5798
5799
5800
5803
5805
5806
5807
5808
5809
5811
5812
5813
5815
5818
5819
5820
5821
5823
5824
5825
5828
5832
5834
5835
5836
5837
5838
5839
5843
5845
5850
5851
5852
5853
5854
5855
5856
5857
5859
5860
5861
5862
5863
5864
5865
5866
5867
5868
5870
5872
5873
5874
5875
5876
5877
5879
5882
5888
5892
5893
5894
5895
5896
5897
5898
5899
5900
5901
5902
5903
5906
5907
5909
5914
5928
5929
5930
5931
5941
5948
5953
5955
5957
5958
5972
5973
5974
5977
5978
5979
5980
5981
5982
5983
5984
5985
5989
5998
6025
6027
6030
6031
6034
6036
6037
6038
6039
6040
6041
6046
6050
6057
6062
6065
6066
6067
6068
6069
6070
6071
6072
)


693
(
441
443
444
472
474
1949
2627
2628
2653
2654
3389
3493
3498
3499
3500
3501
3502
3503
3504
3510
3511
3515
3516
3517
3518
3519
3520
3521
3522
3523
3524
3525
3526
3527
3537
3538
3539
3540
3541
3542
3543
3544
3545
3546
3547
3548
3549
3555
3556
3557
3558
3559
3560
3561
3562
3563
3564
3565
3566
3567
3568
3569
3570
3571
3572
3573
3574
3575
3576
3577
3578
3579
3580
3581
3582
3583
3584
3592
3593
3594
3595
3596
3597
3598
3599
3600
3601
3602
3603
3604
3605
3606
3607
3608
3609
3610
3620
3621
3622
3623
3624
3631
3632
3633
3634
3635
3636
3637
3638
3639
3643
3644
3645
3646
3649
3650
3652
3653
3654
3658
3660
3662
3665
3667
3669
3676
3678
3680
3682
3683
3684
3688
3690
3692
3694
3695
3696
3701
3703
3705
3707
3709
3710
3713
3715
3716
3718
3720
3721
3724
3726
3727
3730
3731
3732
3736
3737
3738
3739
3740
3741
3745
3746
3747
3748
3749
3750
3757
3758
3759
3766
3767
3768
3772
3773
3774
3778
3779
3780
3784
3785
3786
3790
3791
3792
3793
3794
3795
3797
3833
3834
3835
3836
3837
3838
3839
3840
3841
3842
3843
3844
3845
3846
3847
3848
3849
3850
3851
3852
3853
3854
3855
3856
3857
3858
3859
3860
3861
3862
3863
3864
3865
3866
3867
3868
3869
3870
3871
3872
3873
3874
3875
3876
3877
3878
3879
3880
3881
3882
3883
3884
3885
3886
3887
3888
3889
3890
3891
3892
3893
3894
3895
3896
3897
3898
3899
3900
3901
3902
3903
3904
3905
3906
3907
3908
3909
3910
3911
3912
3913
3914
3915
3916
3917
3918
3919
3920
3921
3922
3923
3924
3925
3926
3927
3928
3929
3930
3931
3932
3933
3934
3935
3936
3937
3938
3939
3940
3941
3942
3943
3944
3945
3946
3947
3948
3949
3950
3951
3952
3953
3954
3955
3956
3957
3958
3959
3960
3961
3962
3963
3964
3965
3966
3967
3968
3969
3970
3971
3972
3973
3974
3975
3976
3977
3978
3979
3980
3981
3982
3983
3984
3985
3986
3987
3988
3989
3990
3991
3992
3993
3994
3995
3996
3997
3998
3999
4000
4001
4002
4003
4004
4005
4006
4007
4008
4009
4010
4011
4012
4013
4014
4015
4016
4017
4018
4019
4020
4021
4022
4023
4024
4025
4026
4027
4028
4029
4030
4031
4032
4033
4034
4035
4036
4037
4038
4039
4040
4041
4042
4043
4044
4045
4046
4047
4048
4049
4050
4051
4052
4053
4054
4055
4056
4057
4058
4059
4060
4061
4062
4063
4064
4067
4069
4073
4075
4076
4077
4081
4082
4088
4089
4090
4123
4124
4125
4957
4980
4983
5348
5349
5350
5374
5375
5384
5387
5389
5397
5402
5406
5407
5411
5412
5419
5420
5421
5422
5428
5429
5430
5431
5434
5435
5437
5438
5442
5492
5493
5494
5495
5496
5497
5498
5499
5500
5501
5502
5503
5521
5527
5530
5531
5538
5539
5540
5541
5546
5547
5548
5549
5550
5553
5554
5555
5556
5557
5558
5559
5563
5564
5565
5571
5572
5573
5574
5575
5586
5587
5588
5589
5591
5592
5595
5596
5597
5599
5600
5604
5605
5606
5607
5608
5609
5610
5611
5612
5613
5614
5615
5624
5625
5626
5627
5628
5629
5648
5649
5664
5665
5671
5672
5681
5682
5683
5684
5685
5686
5688
5689
5738
5739
5740
5741
5742
5743
5744
5745
5746
5747
5748
5749
5755
5761
5762
5767
5772
5774
5781
5782
5783
5784
5785
5786
5787
5789
5792
5794
5798
5799
5800
5803
5805
5806
5807
5808
5809
5811
5812
5813
5815
5816
5818
5819
5820
5821
5823
5824
5825
5832
5834
5835
5836
5837
5838
5839
5843
5850
5851
5852
5853
5854
5855
5856
5857
5858
5859
5860
5861
5862
5863
5864
5865
5866
5867
5870
5872
5873
5874
5875
5876
5877
5879
5881
5882
5887
5888
5889
5890
5892
5893
5894
5895
5896
5897
5898
5899
5900
5901
5902
5903
5914
5915
5928
5929
5930
5931
5941
5948
5954
5955
5958
5972
5973
5974
5976
5977
5978
5979
5980
5981
5982
5983
5985
5988
5989
5995
5998
5999
6030
6036
6037
6038
6039
6040
6041
6050
6057
6062
6066
6067
6068
6069
6071
6072
)


1505
(
441
442
443
444
472
473
474
484
485
486
487
488
489
490
491
492
493
494
495
496
497
498
499
500
501
502
503
504
505
506
507
508
509
510
511
512
513
514
515
516
517
518
519
520
524
525
526
527
528
529
530
531
532
533
534
535
536
537
538
539
540
541
546
547
548
549
550
551
552
553
554
555
556
557
558
559
560
561
562
563
564
565
566
567
568
569
570
571
572
573
574
575
576
577
578
579
580
581
584
585
586
587
588
589
590
591
592
594
595
596
597
598
599
605
606
607
608
609
610
611
612
613
614
615
616
617
618
619
620
621
622
623
624
625
626
627
628
629
630
631
632
633
634
635
636
637
638
639
640
646
647
648
649
650
651
652
653
654
655
656
657
658
664
666
667
670
671
672
673
674
675
676
677
678
679
680
681
682
683
684
685
686
687
688
689
690
691
692
693
710
711
712
713
714
715
716
717
718
719
720
721
738
739
740
741
742
743
744
745
746
747
748
749
750
751
752
763
764
765
766
767
768
772
773
774
775
776
777
778
779
780
781
782
783
784
785
786
787
788
789
790
791
792
793
794
795
796
797
798
799
800
801
848
851
863
870
871
891
909
916
942
987
988
989
1030
1031
1032
1036
1037
1038
1054
1055
1056
1060
1061
1062
1063
1064
1065
1084
1085
1086
1090
1091
1092
1093
1094
1095
1542
1554
1558
1586
1587
1620
1621
1625
1626
1627
1634
1685
1686
1687
1688
1689
1690
1691
1692
1767
1768
1769
1774
1849
1850
1851
1858
1859
1860
1861
1862
1863
1909
1910
1911
1918
1920
2627
2628
2653
2654
2655
2656
2666
2667
2668
2669
2670
2671
2675
2678
2681
2682
2683
2684
2685
2686
2693
2694
2695
2696
2697
2698
2699
2700
2701
2702
2703
2704
2705
2706
2707
2713
2714
2715
2719
2720
2721
2722
2723
2728
2729
2731
2732
2733
2734
2735
2736
2737
2745
2746
2747
2754
2756
2757
2758
2759
2773
2774
2775
2776
2777
2778
2779
2780
2781
2784
2785
2786
2787
2788
2789
2790
2791
2792
2793
2794
2795
2796
2797
2798
2799
2800
2818
2819
2820
2826
2827
2828
2829
2830
2831
2839
2840
2841
2846
2847
2848
2849
2850
2851
2852
2853
2854
2855
2856
2857
2864
2865
2866
2867
2868
2869
2870
2871
2872
2882
2883
2884
2885
2886
2887
2888
2889
2890
2891
2892
2921
2922
2923
2924
2926
2927
2928
2930
2931
2932
2933
2934
2935
2936
2938
2939
2940
2942
2943
2944
2945
2946
2948
2949
2950
2951
2952
2953
2954
2955
2964
2965
2966
2967
2968
2969
2970
2971
2972
2973
2975
2976
2977
2978
2979
2980
2981
2982
2984
2985
2986
2990
2991
2992
2994
2995
2996
2997
2998
2999
3000
3001
3002
3010
3011
3012
3013
3014
3015
3016
3017
3018
3019
3020
3021
3022
3023
3024
3029
3030
3031
3032
3033
3034
3389
3423
3446
3493
3498
3499
3500
3501
3502
3503
3504
3505
3506
3507
3508
3509
3510
3511
3512
3513
3514
3515
3516
3517
3518
3519
3520
3521
3522
3523
3524
3525
3526
3527
3528
3529
3530
3531
3532
3533
3534
3535
3536
3537
3538
3539
3540
3541
3542
3543
3544
3545
3546
3547
3548
3549
3550
3551
3552
3553
3554
3555
3556
3557
3558
3559
3560
3561
3562
3563
3564
3565
3566
3567
3568
3569
3570
3571
3572
3573
3574
3575
3576
3577
3578
3579
3580
3581
3582
3583
3584
3585
3586
3587
3588
3589
3590
3591
3592
3593
3594
3595
3596
3597
3598
3599
3600
3601
3602
3603
3604
3605
3606
3607
3608
3609
3610
3611
3612
3613
3614
3615
3616
3617
3618
3619
3620
3621
3622
3623
3624
3625
3626
3627
3628
3629
3630
3631
3632
3633
3634
3635
3636
3637
3638
3639
3640
3641
3642
3643
3644
3645
3646
3647
3648
3649
3650
3651
3652
3653
3654
3655
3656
3657
3658
3659
3660
3661
3662
3663
3664
3665
3666
3667
3668
3669
3670
3671
3672
3673
3674
3675
3676
3677
3678
3679
3680
3681
3682
3683
3684
3685
3686
3687
3688
3689
3690
3691
3692
3693
3694
3695
3696
3697
3698
3699
3700
3701
3702
3703
3704
3705
3706
3707
3708
3709
3710
3711
3712
3713
3714
3715
3716
3717
3718
3719
3720
3721
3722
3723
3724
3725
3726
3727
3728
3729
3730
3731
3732
3733
3734
3735
3736
3737
3738
3739
3740
3741
3742
3743
3744
3745
3746
3747
3748
3749
3750
3751
3752
3753
3754
3755
3756
3757
3758
3759
3760
3761
3762
3763
3764
3765
3766
3767
3768
3769
3770
3771
3772
3773
3774
3775
3776
3777
3778
3779
3780
3781
3782
3783
3784
3785
3786
3787
3788
3789
3790
3791
3792
3793
3794
3795
3797
3801
3833
3834
3835
3836
3837
3838
3839
3840
3841
3842
3843
3844
3845
3846
3847
3848
3849
3850
3851
3852
3853
3854
3855
3856
3857
3858
3859
3860
3861
3862
3863
3864
3865
3866
3867
3868
3869
3870
3871
3872
3873
3874
3875
3876
3877
3878
3879
3880
3881
3882
3883
3884
3885
3886
3887
3888
3889
3890
3891
3892
3893
3894
3895
3896
3897
3898
3899
3900
3901
3902
3903
3904
3905
3906
3907
3908
3909
3910
3911
3912
3913
3914
3915
3916
3917
3918
3919
3920
3921
3922
3923
3924
3925
3926
3927
3928
3929
3930
3931
3932
3933
3934
3935
3936
3937
3938
3939
3940
3941
3942
3943
3944
3945
3946
3947
3948
3949
3950
3951
3952
3953
3954
3955
3956
3957
3958
3959
3960
3961
3962
3963
3964
3965
3966
3967
3968
3969
3970
3971
3972
3973
3974
3975
3976
3977
3978
3979
3980
3981
3982
3983
3984
3985
3986
3987
3988
3989
3990
3991
3992
3993
3994
3995
3996
3997
3998
3999
4000
4001
4002
4003
4004
4005
4006
4007
4008
4009
4010
4011
4012
4013
4014
4015
4016
4017
4018
4019
4020
4021
4022
4023
4024
4025
4026
4027
4028
4029
4030
4031
4032
4033
4034
4035
4036
4037
4038
4039
4040
4041
4042
4043
4044
4045
4046
4047
4048
4049
4050
4051
4052
4053
4054
4055
4056
4057
4058
4059
4060
4061
4062
4063
4064
4067
4069
4073
4075
4076
4077
4081
4082
4087
4088
4089
4090
4123
4124
4125
4131
4132
4136
4138
4141
4142
4143
4144
4145
4146
4147
4148
4149
4150
4151
4152
4153
4154
4155
4158
4161
4162
4163
4164
4165
4166
4167
4168
4169
4171
4172
4173
4177
4178
4179
4180
4181
4182
4183
4184
4185
4186
4187
4188
4189
4190
4191
4192
4193
4194
4195
4196
4197
4198
4199
4200
4201
4204
4205
4206
4207
4208
4209
4210
4211
4212
4213
4214
4225
4226
4227
4228
4229
4230
4231
4232
4233
4234
4235
4236
4237
4238
4239
4240
4241
4242
4243
4244
4245
4246
4247
4248
4249
4250
4251
4256
4257
4258
4259
4260
4261
4262
4285
4286
4288
4292
4293
4296
4332
4334
4335
4346
4347
4348
4365
4366
4367
4426
4427
4428
4429
4430
4431
4957