/*--------------------------------*- C++ -*----------------------------------*\
  =========                 |
  \\      /  F ield         | OpenFOAM: The Open Source CFD Toolbox
   \\    /   O peration     | Website:  https://openfoam.org
    \\  /    A nd           | Version:  8
     \\/     M anipulation  |
\*---------------------------------------------------------------------------*/
/*   Windows 32 and 64 bit porting by blueCAPE: http://www.bluecape.com.pt   *\
|  Based on Windows porting (2.0.x v4) by Symscape: http://www.symscape.com   |
\*---------------------------------------------------------------------------*/
FoamFile
{
    version     2.0;
    format      ascii;
    class       scalarListList;
    location    "constant/vegetation";
    object      kcLAIboundary;
}
// * * * * * * * * * * * * * * * * * * * * * * * * * * * * * * * * * * * * * //


5
(

339
(
0.53077043
0
0
0
0.001151096
1.3405074
0
0
1000
0.14920455
0
0.55085171
1000
0
0
1000
0.78527336
0.076354432
1000
1000
0
0
0
0
0
0
0
1000
1000
0
0
0
0
0
0
0
0
0
0
0
0
1000
0
0
1000
1000
0
0
1000
0
1000
0
0
0
0
0
0
0
0
0
0
0
0
0
0
1000
1000
1000
1000
1000
1000
1000
1000
0
0
0
0
0
0
0
0
0
0
0
0
0
1000
1000
1000
1000
1000
0
0
0
0
0
0
0
0
0
0
0
0
0
0
0
0
0
0
0
0
0
0
0
0
0
0
0
0
0
0
1000
1000
1000
1000
1000
1000
1000
0
0
0
0
0
0
0
0
0
0
0
0
0
0
0
0
0
0
0
1000
0
1000
0
1000
1000
1000
0
1000
0
0
0
0
0
0
1000
0
1000
1000
1000
0
0
0
0
0
0
0
0
0
1000
1000
1000
0
0
0
0
1000
1000
0
0
1000
0
0
0
0
0
0
0
1000
0
1000
0
1000
1000
0
1000
0
1000
0
1000
1000
1000
1000
1000
1000
0
1000
0
1000
0
1000
0
0
0
1000
1000
1000
0
1000
0
1000
0
1000
0
0
0
1000
1000
1000
1000
0
1000
0
1000
0
1000
0
1000
0
0
1000
1000
0
1000
0
0
1000
0
1000
0
0
1000
1000
0
1000
0
0
1000
1000
0
0
0
1000
1000
1000
0
0
0
0
0
0
1000
1000
1000
0
0
0
0
0
0
0
0
0
1000
1000
1000
0
0
0
1000
1000
1000
1000
1000
1000
0
0
0
1000
1000
1000
0
0
0
1000
1000
1000
0
0
0
1000
1000
1000
0
0
0
1000
1000
1000
0
0
0
2.5718374
1.0541118
1.5185169
2.1297823
2.3991239
0.64935599
1.2990139
0.90821251
1.1420746
0.42510564
)


339
(
0.057598752
0
0.64475527
0.01230072
0.65123171
3.3438289
0.031042892
1.186042
1000
0.34785002
0.19760379
1.0345427
1000
0
0.6383088
1000
2.5472958
2.6261659
0.15091334
1000
0.012786238
0.67453489
0.12905474
0.0078344082
1000
0.00083788648
0.026672093
1000
1000
0
0
0
0
0
0.07516544
0.00044002646
0.00012782662
0
0
0.56633249
0
1000
1000
1000
1000
1000
0
0
1000
1000
1000
0.00014060526
0
0
0
0.004299684
0
0
0.00091868964
0.35259161
0.0087091542
0.0049552445
0
0
1000
1000
1000
1000
1000
1000
1000
1000
1000
0
0
0
0
0
0
0.0017959248
0
0.20244994
0.0017487203
0
0
0
1000
1000
1000
1000
1000
0
0
0
0
0
0
0
0
0
0
0
3.8606161e-05
0
0
0
0
0
0
0
0
0
0
0
0
0
0
0
0
0
0
1000
1000
1000
1000
1000
1000
1000
0
0
0
0
0
0
0
0
0
0
0
0
0
0
0
0
0
0
0
1000
1000
1000
1000
1000
1000
1000
1000
1000
0
0
0
0
0
0
1000
1000
1000
1000
1000
0
0
0
0
0
0
0
0
0
1000
1000
1000
0.044028895
0.25817302
0.13162496
9.1402049e-05
1000
1000
0
0
1000
0
0
0
1000
1000
1000
0.56738369
1000
0.21553517
1000
0.21868732
1000
1000
0
1000
0
1000
0
1000
1000
1000
1000
1000
1000
0.021744436
1000
0.086480076
1000
0
1000
0
0
0
1000
1000
1000
0.47139032
1000
0.15396327
1000
0.18849234
1000
0.035611311
0.0088364139
0.06223112
1000
1000
1000
1000
0
1000
0
1000
0
1000
0.00013003662
1000
0
0
1000
1000
0
1000
0
0
1000
9.6038066e-05
1000
2.040258e-06
0
1000
1000
0
1000
0
0
1000
1000
0.020486559
0.010538258
0.048327738
1000
1000
1000
0
0
0
0.026713246
0
0
1000
1000
1000
0
0
0
0
0.00065780378
0
1000
1000
1000
1000
1000
1000
0.054290628
0.0076234298
0.066985783
1000
1000
1000
1000
1000
1000
0
0
0
1000
1000
1000
0
0
0
1000
1000
1000
0
0
0
1000
1000
1000
0
0
0
1000
1000
1000
0
0
0
2.6024964
1.6721514
2.3963082
2.7100457
2.7531734
1.0680394
1.5692897
1.0442957
1.385157
0.71790704
)


339
(
0
0
0.49360734
0.0047591555
2.8233795
3.1345505
0.00053517234
3.1240088
0.20964049
0.0012921948
1.25012
1.4425213
2.0542575
0.09606346
2.1421137
0.33680852
2.2101499
3.1639583
2.6972117
1000
0.10284896
2.424201
0.30241163
0.0048429921
1000
0.4401393
1.4912415
1000
1000
0
0
0
0
0
0.27996776
0
1.2811492
0.0024035932
0
2.9804146
0
1000
1000
1000
1000
1000
0
0.0028020423
1000
1000
1000
0.84615697
0
0
0.008746609
0.00027069777
0.00016430005
0.43381133
0.37696664
2.6694345
1.4189165
0.90445822
0
0
1000
1000
1000
1000
1000
1000
1000
1000
1000
0
0
0
0
0
0
0.10802424
0.30284311
2.4741804
0.70185395
0
0
0
1000
1000
1000
1000
1000
0
0
0
0
0
0
0
0
0
0
0.14128364
0.24802225
0.047783392
0
0
0
0
0
0
0.098560373
0
0.00077951919
0
0
0
0
0
0
0
0
1000
1000
1000
1000
1000
1000
1000
0
0
0
0
0
0
0
0
0
0
0
0
0
0
0
0
0.072103265
0
0.11791349
1000
1000
1000
1000
1000
1000
1000
1000
1000
0
0
0
0
0
1000
1000
1000
1000
1000
1000
0
0
0
0
0
0
0
0
0
1000
1000
1000
0.17650572
0.95351921
0.82550467
1.7275957
1000
1000
1.1066025
1.4749632
1000
0.001486321
8.2314395e-05
0.0046218912
1000
1000
1000
3.0505282
1000
2.5562521
1000
2.4996653
1000
1000
0
1000
0.00090373044
1000
0
1000
1000
1000
1000
1000
1000
2.1847455
1000
2.034736
1000
1.8093491
1000
0.059284357
0.47502828
0.050327167
1000
1000
1000
2.8693358
1000
2.1785167
1000
2.3350814
1000
2.0633813
1.3426598
1.9436158
1000
1000
1000
1000
0
1000
0
1000
0
1000
0.53984543
1000
0.70486162
0.46460265
1000
1000
0.014228153
1000
0.003541232
0.0052193364
1000
0.39511938
1000
0.19461294
0.33248013
1000
1000
0.019248668
1000
0.05439017
0.0059397308
1000
1000
0.078154813
0.58898009
0.70227161
1000
1000
1000
0.66707358
0.45098159
0.90687367
1.3264802
0.56736648
1.1233482
1000
1000
1000
0.00074274575
0.0038193346
0.0066759754
0.015955884
0.45686998
0.036329946
1000
1000
1000
1000
1000
1000
1.534728
1.1588829
1.7430762
1000
1000
1000
1000
1000
1000
0
0
0
1000
1000
1000
0.3944036
0.11198425
0.27719679
1000
1000
1000
0.086654086
0.11770709
0.20396912
1000
1000
1000
0
0
0
1000
1000
1000
0.018527845
0
0
2.4203901
2.0275446
2.7843368
2.7711883
3.0676198
1.4013898
1.8612036
1.1677867
1.6487731
1.1726329
)


339
(
0
0
0.0017277135
0.041044015
2.73734
3.201749
0
2.5365243
2.1713382
0
2.0335042
0.93337142
2.7233505
0.1760748
1.2383736
1.9833296
0.81565561
2.7115205
2.7566404
2.8141348
0.6340934
2.4749066
0.0058165197
0.0011585
1000
1.7358841
2.2499546
1000
3.0425279
0
0
0
0
0
0.0084363955
0
2.9561314
0.0017750289
0.0040893094
2.783985
0
1000
1000
1000
1000
1000
0
0.062495856
1000
1000
1000
2.6372301
0
0.00093931113
0.20919827
0.0039089129
0.0091207154
1.7778289
2.0149017
3.0173793
2.3280968
2.3064617
0
0
1000
1000
1000
1000
1000
1000
1000
1000
1000
0
0
0
0
0
0
0.0027284989
1.9389061
3.0714933
2.260428
0
0
0
1000
1000
1000
1000
1000
0
0
0
0.00021061284
0
0
0
0
0.00083470655
0
1.7152685
1.4893479
0.94913226
0.026080383
0
0.063289696
0.73134173
0
0.3235768
1.0599151
0.050734505
0.66149393
0
0
0
0
0
0
0
0
1000
1000
1000
1000
1000
1000
1000
0
0
0
0
0
0
0
0
0
0
0
0
0
0
0
0
1.2659951
0.018527984
1.4170953
1000
1000
1000
1000
1000
1000
1000
1000
1000
0
0
0
0
0
1000
1000
1000
1000
1000
1000
0
0
0
0
6.9988887e-05
2.8498577e-06
0
0.00010312277
9.9742815e-05
1000
1000
1000
0.0069092623
0.13080094
0.10461174
3.084924
1000
1000
2.8730041
3.0031309
1000
0.0049926638
0.053765747
0.053151165
1000
1000
1000
2.8526375
1000
2.7686413
1000
2.8323488
1000
1000
0.036828273
1000
0.043953824
1000
0.027767051
1000
1000
1000
1000
1000
1000
3.0789386
1000
2.9672055
1000
2.9859279
1000
0.59539615
1.8835592
0.68061185
1000
1000
1000
2.9358368
1000
2.9327667
1000
2.8850835
1000
2.6674769
2.3633169
2.6900806
1000
1000
1000
1000
0.012454262
1000
0
1000
0.0090550546
1000
2.3091131
1000
2.598008
2.3177147
1000
1000
0.45844215
1000
0.16432023
0.41264065
1000
1.925559
1000
1.4683056
1.9356737
1000
1000
0.71081838
1000
1.0062323
0.66064181
1000
1000
0.0054974879
0.05799653
0.078954483
1000
1000
1000
2.4868048
2.1299007
2.6169209
2.625677
2.1858787
2.6182171
1000
1000
1000
0.0077485285
0.0509309
0.052282988
0.82274813
1.9762414
0.7623215
1000
1000
1000
1000
1000
1000
2.6380462
2.347424
2.6594073
1000
1000
1000
1000
1000
1000
8.4265561e-05
0.00043026515
2.0423291e-05
1000
1000
1000
2.2661081
1.4864423
2.0435011
1000
1000
1000
1.2409029
1.2949327
1.7097112
1000
1000
1000
0.087621524
0.2504509
0.32591808
1000
1000
1000
0.8661128
0.43186254
0.55888696
2.0270435
2.443914
2.7359693
2.5608518
2.5604534
1.870637
1.95765
1.4359974
1.7564021
1.630839
)


339
(
1000
0
0.0018913777
0.67666852
4.6219567
4.1913992
0
2.563931
1.1372618
0.0045585956
3.7956031
3.0975466
1.7681045
0.0072480468
0.077557075
0.6745192
0.062206662
4.244284
2.6373376
2.3601072
2.335157
4.589057
0.008499407
0.20916659
2.4315458
3.6689267
4.2319463
3.2330959
3.4519479
0
0
0
0
0
0.009846117
0
2.6794469
0.22090999
0.61685385
4.4484208
0
2.4965514
2.6024543
2.0477441
4.1084402
0.5806193
0.0092908448
0.79484579
2.4544212
1.5908062
1.0170965
2.6257629
0.071502283
0.54318058
1.2116377
0.0017427037
0.12268754
3.8016966
3.2975298
3.9376513
4.3006969
3.8624679
0
0
2.3637466
3.4879472
2.5446003
3.4827327
3.8641019
2.6197934
0
0
0
0.0039302995
0.0016379666
0
0.0012857843
0
0
8.5271692e-05
2.604904
3.3519683
3.3323727
0
0
0
0.00039876554
0
0.02290062
0.046412925
0
0
0
0
0.25366421
0.0070534685
0
0
0.071279941
0.67991205
0.010124676
2.5064772
2.3845143
2.2173945
0.70886966
0.25006811
1.3389242
1.9123285
0.45197498
1.6741915
2.2230872
1.0679517
2.1273835
0
0
0
0
0
0
0
0
0
0
0
0
0
0
0
0
0
0
0.0092928574
0
0
0.0035339467
0
0
0
0
0
0
0
0.00030412318
0
2.1118473
0.70187993
2.3616946
2.2915226
2.3231924
2.4061073
0.094638257
0.054788442
0.678736
1.9737283
0.9430727
1.4239089
0
0
0
0
0
0
0
0
0
0
0.0078759767
0
0
0
0.0015871438
0.01294618
0.0028732377
0.028813855
0.019028384
0.05679609
2.3640704
2.9475326
2.5297668
0.0066513677
1.1609965e-05
0.00010763293
2.778985
2.584362
2.4543119
2.9294234
3.0462516
2.5082335
0.19331885
1.3975929
1.3498943
2.5061708
2.7525419
2.5846709
4.406649
4.0978061
4.6635433
4.0689793
4.7074475
4.0572321
0.14373733
0.37880721
0.27064258
0.86062341
0.064448857
0.46613334
2.2439556
2.1539634
1.6068613
1.9960526
0.073229574
1.3191062
2.8782958
2.6753781
3.6769031
2.6912164
3.1624538
2.5992705
2.5918379
3.7535178
2.5365536
3.1175812
2.9804542
2.6627409
4.394226
4.0095816
4.296251
3.0913337
4.7487995
3.6188196
4.6123509
4.3108685
4.6478569
4.0314357
3.3582462
3.7452497
0.057216469
0.13638152
0
0.10629223
0.031877077
0.20693899
2.4122017
2.5940788
2.4121702
2.8827971
2.8727273
2.3464977
1.3814519
1.5802027
0.70773868
1.2541687
1.7120891
1.1451311
2.5457304
2.311686
2.6734033
2.8446924
2.0361972
2.1927021
1.9441848
1.6934968
2.5025935
2.1704086
1.7801377
1.4710222
0.0035207578
0.0032252128
0.00021785648
2.4113435
2.4075863
2.4533436
2.8658286
2.7303988
3.0035883
3.6499289
2.8503609
3.1402149
2.6132712
2.4479275
2.5212993
0.16557408
1.3087957
1.301128
2.3138692
3.6903201
2.4736827
2.4096233
2.406764
2.4878519
2.4623341
2.6440352
2.5660439
4.2499935
4.3108254
4.6822013
2.7062854
2.8358636
3.226414
0.070710725
0.017571703
0.04054626
0.73219137
0.27794336
0.31083184
2.3692363
2.0815976
2.221539
2.806132
2.4094861
2.7913841
1.9142196
1.8614351
2.0676982
2.316561
2.6095972
2.7643262
0.39284032
0.49619444
0.83014224
1.1535508
1.4788367
1.638704
1.5553865
0.91835566
1.2462718
2.4554604
1.8658689
2.1232251
4.157954
2.2632216
2.7847524
4.1358794
2.8010416
1.8926208
2.1405869
1.8716167
1.5895707
2.1923981
)

)


// ************************************************************************* //
