/*--------------------------------*- C++ -*----------------------------------*\
  =========                 |
  \\      /  F ield         | OpenFOAM: The Open Source CFD Toolbox
   \\    /   O peration     | Website:  https://openfoam.org
    \\  /    A nd           | Version:  8
     \\/     M anipulation  |
\*---------------------------------------------------------------------------*/
/*   Windows 32 and 64 bit porting by blueCAPE: http://www.bluecape.com.pt   *\
|  Based on Windows porting (2.0.x v4) by Symscape: http://www.symscape.com   |
\*---------------------------------------------------------------------------*/
FoamFile
{
    version     2.0;
    format      ascii;
    class       scalarListList;
    location    "constant/vegetation";
    object      solarLoadFineFaces;
}
// * * * * * * * * * * * * * * * * * * * * * * * * * * * * * * * * * * * * * //


5
(

549
(
717.08284
421.75347
717.08284
421.75347
717.08284
717.08284
717.08284
717.08284
717.08284
187.66979
717.08284
0
0
717.08284
717.08284
717.08284
717.08284
717.08284
717.08284
717.08284
717.08284
717.08284
0
0
717.08284
0
0
0
717.08284
717.08284
717.08284
413.36859
717.08284
187.66979
717.08284
187.66979
326.98621
717.08284
717.08284
717.08284
717.08284
717.08284
717.08284
717.08284
717.08284
717.08284
717.08284
717.08284
717.08284
717.08284
717.08284
717.08284
717.08284
717.08284
717.08284
717.08284
717.08284
717.08284
0
0
717.08284
0
0
0
717.08284
717.08284
717.08284
717.08284
717.08284
717.08284
0
0
0
0
0
0
717.08284
717.08284
717.08284
717.08284
717.08284
717.08284
717.08284
717.08284
717.08284
717.08284
717.08284
717.08284
717.08284
717.08284
0
0
0
0
717.08284
717.08284
717.08284
717.08284
717.08284
717.08284
0
0
0
0
0
0
717.08284
717.08284
717.08284
717.08284
717.08284
717.08284
0
0
0
717.08284
717.08284
0
0
717.08284
717.08284
717.08284
0
0
0
717.08284
717.08284
717.08284
0
0
0
717.08284
717.08284
717.08284
717.08284
80.639504
80.639504
80.639504
80.639504
80.639504
80.639504
80.639504
0
0
0
0
0
80.639504
80.639504
0
0
0
80.639504
80.639504
80.639504
80.639504
80.639504
80.639504
80.639504
80.639504
80.639504
80.639504
80.639504
80.639504
80.639504
0
0
0
0
0
0
0
0
0
80.639504
80.639504
80.639504
80.639504
80.639504
80.639504
80.639504
80.639504
80.639504
80.639504
80.639504
80.639504
80.639504
0
0
0
0
0
80.639504
80.639504
80.639504
80.639504
80.639504
80.639504
80.639504
80.639504
80.639504
80.639504
80.639504
80.639504
80.639504
80.639504
80.639504
80.639504
80.639504
80.639504
80.639504
80.639504
80.639504
80.639504
80.639504
80.639504
80.639504
80.639504
80.639504
80.639504
80.639504
80.639504
0
0
0
0
0
0
0
80.639504
80.639504
80.639504
80.639504
80.639504
80.639504
80.639504
80.639504
80.639504
80.639504
80.639504
80.639504
80.639504
80.639504
80.639504
80.639504
80.639504
80.639504
80.639504
0
0
0
0
0
0
0
0
0
80.639504
80.639504
80.639504
80.639504
80.639504
0
0
0
0
0
0
80.639504
80.639504
80.639504
80.639504
80.639504
80.639504
80.639504
80.639504
80.639504
0
0
0
80.639504
80.639504
80.639504
80.639504
0
0
80.639504
80.639504
0
80.639504
80.639504
80.639504
0
0
0
80.639504
0
80.639504
0
80.639504
0
0
80.639504
0
80.639504
0
80.639504
0
0
0
0
0
0
80.639504
0
80.639504
0
80.639504
0
80.639504
80.639504
80.639504
0
0
0
80.639504
0
80.639504
0
80.639504
0
80.639504
80.639504
80.639504
0
0
0
0
80.639504
0
80.639504
0
80.639504
0
80.639504
0
80.639504
80.639504
0
0
80.639504
0
80.639504
80.639504
0
80.639504
0
80.639504
80.639504
0
0
80.639504
0
80.639504
80.639504
0
0
80.639504
80.639504
80.639504
0
0
0
80.639504
80.639504
80.639504
80.639504
80.639504
80.639504
0
0
0
80.639504
80.639504
80.639504
80.639504
80.639504
80.639504
0
0
0
0
0
0
80.639504
80.639504
80.639504
0
0
0
0
0
0
80.639504
80.639504
80.639504
0
0
0
80.639504
80.639504
80.639504
0
0
0
80.639504
80.639504
80.639504
0
0
0
80.639504
80.639504
80.639504
0
0
0
80.639504
80.639504
80.639504
0
0
0
0
0
0
0
226.50589
173.68977
24.440573
218.96834
160.63274
0
0
0
0
0
0
0
0
0
191.4967
176.44359
75.46495
65.040322
0
20.304297
97.013835
0
1.9730209
0
73.870573
61.556503
24.022309
89.312392
0
0
0
0
61.557594
20.202345
0
0
0
0
0
0
0
0
0
88.325593
0
0
0
0
0
0
0
0
0
0
0
0
0
0
0
119.72716
44.395643
60.734584
0
0
0
0
0
230.51382
177.1266
0
0
0
0
0
0
0
0
0
0
0
0
0
0
0
0
216.21
235.83849
253.62114
161.22999
175.4524
293.21546
98.583647
0
71.95195
14.451846
105.56186
6.2882859
88.542978
5.8454311
95.729222
28.487134
12.640382
0
0
0
0
0
0
0
0
0
68.539302
)


549
(
585.76158
585.76158
585.76158
585.76158
585.76158
585.76158
585.76158
585.76158
585.76158
20.678282
585.76158
585.76158
0
585.76158
585.76158
585.76158
585.76158
585.76158
585.76158
20.678282
585.76158
585.76158
0
585.76158
585.76158
0
585.76158
0
309.39044
45.86109
20.678282
208.17314
208.17314
20.678282
585.76158
20.678282
45.86109
413.66763
585.76158
585.76158
585.76158
585.76158
585.76158
585.76158
585.76158
585.76158
585.76158
585.76158
585.76158
585.76158
585.76158
585.76158
42.382984
42.382984
585.76158
585.76158
585.76158
585.76158
585.76158
585.76158
585.76158
0
0
0
585.76158
585.76158
585.76158
585.76158
585.76158
585.76158
0
585.76158
0
0
0
0
45.86109
178.90785
42.382984
42.382984
585.76158
45.86109
585.76158
585.76158
585.76158
585.76158
585.76158
585.76158
585.76158
585.76158
0
0
0
503.7094
585.76158
585.76158
585.76158
585.76158
585.76158
585.76158
0
0
0
0
0
0
585.76158
585.76158
585.76158
585.76158
585.76158
585.76158
0
0
0
585.76158
585.76158
503.7094
503.7094
585.76158
585.76158
585.76158
0
0
0
585.76158
585.76158
585.76158
0
0
0
585.76158
585.76158
585.76158
585.76158
227.80796
227.80796
227.80796
227.80796
227.80796
227.80796
227.80796
0
0
0
0
0
227.80796
227.80796
0
0
0
227.80796
227.80796
227.80796
227.80796
227.80796
227.80796
227.80796
227.80796
227.80796
227.80796
227.80796
227.80796
227.80796
0
0
0
0
0
0
0
0
0
227.80796
227.80796
227.80796
227.80796
227.80796
227.80796
227.80796
227.80796
227.80796
227.80796
227.80796
227.80796
227.80796
0
0
0
0
0
227.80796
227.80796
227.80796
227.80796
227.80796
227.80796
227.80796
227.80796
227.80796
227.80796
227.80796
227.80796
227.80796
227.80796
227.80796
227.80796
227.80796
227.80796
227.80796
227.80796
227.80796
227.80796
227.80796
227.80796
227.80796
227.80796
227.80796
227.80796
227.80796
227.80796
0
0
0
0
0
0
0
227.80796
227.80796
227.80796
227.80796
227.80796
227.80796
227.80796
227.80796
227.80796
227.80796
227.80796
227.80796
227.80796
227.80796
227.80796
227.80796
227.80796
227.80796
227.80796
0
0
0
0
0
0
0
0
0
227.80796
227.80796
227.80796
227.80796
227.80796
0
0
0
0
0
0
227.80796
227.80796
227.80796
227.80796
227.80796
227.80796
227.80796
227.80796
227.80796
0
0
0
227.80796
227.80796
227.80796
227.80796
0
0
227.80796
227.80796
0
227.80796
227.80796
227.80796
0
0
0
227.80796
0
227.80796
0
227.80796
0
0
227.80796
0
227.80796
0
227.80796
0
0
0
0
0
0
227.80796
0
227.80796
0
227.80796
0
227.80796
227.80796
227.80796
0
0
0
227.80796
0
227.80796
0
227.80796
0
227.80796
227.80796
227.80796
0
0
0
0
227.80796
0
227.80796
0
227.80796
0
227.80796
0
227.80796
227.80796
0
0
227.80796
0
227.80796
227.80796
0
227.80796
0
227.80796
227.80796
0
0
227.80796
0
227.80796
227.80796
0
0
227.80796
227.80796
227.80796
0
0
0
227.80796
227.80796
227.80796
227.80796
227.80796
227.80796
0
0
0
227.80796
227.80796
227.80796
227.80796
227.80796
227.80796
0
0
0
0
0
0
227.80796
227.80796
227.80796
0
0
0
0
0
0
227.80796
227.80796
227.80796
0
0
0
227.80796
227.80796
227.80796
0
0
0
227.80796
227.80796
227.80796
0
0
0
227.80796
227.80796
227.80796
0
0
0
227.80796
227.80796
227.80796
0
0
0
0
0
0
0
101.55664
18.803641
0
94.500638
9.2999262
0
0
0
0
0
0
0
0
0
4.059186
0
0
0
0
0
0
0
0
0
0
0
0
0
0
0
0
0
0
0
0
0
0
0
0
0
0
0
0
0
0
0
0
0
0
0
0
0
0
0
0
0
0
0
0
0
0
0
0
0
0
0
0
104.32038
22.238708
0
0
0
0
0
0
0
0
0
0
0
0
0
0
0
0
26.177014
50.15469
65.672682
0
0
98.276285
0
0
0
0
0
0
0
0
0
0
0
0
0
0
0
0
0
0
0
0
0
)


549
(
536.2201
536.2201
536.2201
536.2201
536.2201
536.2201
536.2201
536.2201
31.854072
23.33593
536.2201
23.583231
434.80786
23.583231
536.2201
536.2201
536.2201
536.2201
536.2201
23.33593
126.72551
536.2201
68.736972
487.10575
62.955682
536.2201
536.2201
536.2201
62.955682
58.814876
23.33593
126.72551
126.72551
23.33593
536.2201
23.33593
58.814876
536.2201
536.2201
536.2201
536.2201
536.2201
536.2201
536.2201
536.2201
536.2201
327.3197
536.2201
536.2201
536.2201
536.2201
536.2201
22.659664
22.659664
31.854072
536.2201
536.2201
536.2201
36.137569
36.137569
23.583231
434.80786
536.2201
0
536.2201
536.2201
536.2201
47.481669
47.481669
153.6112
68.736972
68.736972
68.736972
0
536.2201
536.2201
536.2201
23.583231
22.659664
22.659664
536.2201
58.814876
62.955682
536.2201
536.2201
536.2201
536.2201
536.2201
536.2201
31.854072
0
0
0
36.137569
536.2201
536.2201
536.2201
536.2201
536.2201
536.2201
0
0
0
0
0
0
327.3197
327.3197
536.2201
536.2201
536.2201
536.2201
0
0
0
31.854072
31.854072
36.137569
36.137569
536.2201
536.2201
536.2201
0
0
0
47.481669
47.481669
120.69941
68.736972
68.736972
0
536.2201
536.2201
536.2201
536.2201
381.92334
381.92334
106.06697
381.92334
381.92334
19.390928
381.92334
0
0
0
0
0
381.92334
381.92334
0
0
0
381.92334
381.92334
381.92334
381.92334
381.92334
381.92334
381.92334
381.92334
26.464002
381.92334
381.92334
381.92334
381.92334
0
0
0
0
0
0
0
0
0
381.92334
381.92334
381.92334
381.92334
381.92334
381.92334
381.92334
381.92334
32.170166
381.92334
381.92334
381.92334
381.92334
0
0
0
0
0
381.92334
381.92334
381.92334
381.92334
381.92334
381.92334
381.92334
381.92334
381.92334
381.92334
381.92334
381.92334
381.92334
381.92334
381.92334
381.92334
381.92334
381.92334
381.92334
381.92334
381.92334
381.92334
381.92334
381.92334
381.92334
381.92334
381.92334
381.92334
381.92334
381.92334
0
0
0
0
0
0
0
381.92334
381.92334
381.92334
381.92334
381.92334
381.92334
381.92334
381.92334
381.92334
381.92334
381.92334
381.92334
381.92334
381.92334
381.92334
381.92334
381.92334
381.92334
381.92334
0
0
0
0
0
0
0
0
0
381.92334
381.92334
381.92334
381.92334
381.92334
0
0
0
0
0
0
381.92334
381.92334
381.92334
381.92334
381.92334
381.92334
381.92334
381.92334
381.92334
0
0
0
381.92334
381.92334
381.92334
67.872043
0
0
381.92334
87.379151
0
381.92334
381.92334
381.92334
0
0
0
18.077927
0
29.635347
0
31.360671
0
0
381.92334
0
381.92334
0
381.92334
0
0
0
0
0
0
42.968806
0
49.923104
0
62.544031
0
381.92334
381.92334
381.92334
0
0
0
21.669031
0
43.237285
0
36.971173
0
48.51333
381.92334
54.685802
0
0
0
0
381.92334
0
381.92334
0
381.92334
0
381.92334
0
381.92334
381.92334
0
0
381.92334
0
381.92334
381.92334
0
381.92334
0
381.92334
381.92334
0
0
381.92334
0
381.92334
381.92334
0
0
381.92334
381.92334
381.92334
0
0
0
381.92334
381.92334
381.92334
381.92334
381.92334
381.92334
0
0
0
381.92334
381.92334
381.92334
381.92334
381.92334
381.92334
0
0
0
0
0
0
82.309942
381.92334
66.82944
0
0
0
0
0
0
381.92334
381.92334
381.92334
0
0
0
381.92334
381.92334
381.92334
0
0
0
381.92334
381.92334
381.92334
0
0
0
381.92334
381.92334
381.92334
0
0
0
381.92334
381.92334
381.92334
0
0
0
0
0
0
0
0
0
0
0
0
0
0
0
0
0
0
0
0
0
0
0
0
0
0
0
0
0
0
0
0
0
0
0
0
0
0
0
0
0
0
0
0
0
0
0
0
0
0
0
0
0
0
0
0
0
0
0
0
0
0
0
0
0
0
0
0
0
0
0
0
0
0
0
0
0
0
0
0
0
0
0
0
0
0
0
0
0
0
0
0
0
0
0
0
0
0
0
0
0
0
0
0
0
0
0
0
0
0
0
0
0
0
0
0
0
0
0
)


549
(
411.8157
411.8157
411.8157
411.8157
411.8157
411.8157
411.8157
411.8157
26.661909
16.757182
411.8157
32.591504
46.957255
32.591504
411.8157
411.8157
53.896833
411.8157
411.8157
16.757182
161.93654
53.896833
27.037517
345.33022
119.36695
56.670077
56.670077
56.670077
119.36695
182.16636
16.757182
411.8157
161.93654
16.757182
411.8157
16.757182
411.8157
411.8157
411.8157
411.8157
411.8157
411.8157
411.8157
411.8157
411.8157
411.8157
411.8157
411.8157
411.8157
411.8157
411.8157
411.8157
27.35927
27.35927
26.661909
411.8157
411.8157
411.8157
26.152258
26.152258
32.591504
46.957255
46.957255
24.691057
53.896833
411.8157
411.8157
34.662878
34.662878
53.896833
27.037517
27.037517
27.037517
24.691057
46.957255
56.670077
411.8157
32.591504
27.35927
27.35927
411.8157
411.8157
411.8157
411.8157
411.8157
411.8157
411.8157
411.8157
411.8157
26.661909
0
0
0
26.152258
72.580176
72.580176
72.580176
43.407026
43.407026
43.407026
0
0
0
19.649424
19.649424
19.649424
411.8157
411.8157
411.8157
411.8157
411.8157
411.8157
24.691057
24.691057
0
26.661909
26.661909
26.152258
26.152258
411.8157
411.8157
411.8157
24.691057
24.691057
0
34.662878
34.662878
43.407026
27.037517
27.037517
19.649424
411.8157
411.8157
411.8157
411.8157
471.50949
471.50949
24.527816
471.50949
471.50949
29.135409
471.50949
0
0
0
0
0
471.50949
471.50949
0
0
0
33.740845
471.50949
471.50949
471.50949
471.50949
471.50949
79.687308
62.868015
23.07062
45.963262
46.968517
471.50949
471.50949
0
0
0
0
0
0
0
0
0
471.50949
471.50949
471.50949
471.50949
471.50949
471.50949
471.50949
67.831937
21.855354
49.18119
471.50949
471.50949
471.50949
0
0
0
0
0
471.50949
471.50949
471.50949
471.50949
471.50949
471.50949
471.50949
471.50949
471.50949
471.50949
84.831822
106.33466
471.50949
471.50949
471.50949
471.50949
471.50949
471.50949
471.50949
163.37107
471.50949
471.50949
471.50949
471.50949
471.50949
471.50949
471.50949
471.50949
471.50949
471.50949
0
0
0
0
0
0
0
471.50949
471.50949
471.50949
471.50949
471.50949
471.50949
471.50949
471.50949
471.50949
471.50949
471.50949
471.50949
471.50949
471.50949
471.50949
471.50949
471.50949
471.50949
471.50949
0
0
0
0
0
0
0
0
0
471.50949
471.50949
471.50949
471.50949
471.50949
0
0
0
0
0
0
471.50949
471.50949
471.50949
471.50949
471.50949
471.50949
471.50949
471.50949
471.50949
0
0
0
471.50949
471.50949
471.50949
21.563784
0
0
26.653891
23.401692
0
471.50949
471.50949
471.50949
0
0
0
27.202306
0
29.585901
0
27.759842
0
0
471.50949
0
471.50949
0
471.50949
0
0
0
0
0
0
21.693239
0
24.257691
0
23.807754
0
471.50949
71.692062
471.50949
0
0
0
25.030684
0
25.107649
0
26.333864
0
32.735573
44.372608
32.003928
0
0
0
0
471.50949
0
471.50949
0
471.50949
0
46.84415
0
35.090528
46.442943
0
0
471.50949
0
471.50949
471.50949
0
68.743366
0
108.5959
68.051552
0
0
471.50949
0
172.38096
471.50949
0
0
471.50949
471.50949
471.50949
0
0
0
39.217945
56.038476
34.433101
34.132917
52.987738
34.388497
0
0
0
471.50949
471.50949
471.50949
471.50949
65.346105
471.50949
0
0
0
0
0
0
33.713321
45.083451
33.000804
0
0
0
0
0
0
471.50949
471.50949
471.50949
0
0
0
48.902628
106.64408
61.095495
0
0
0
471.50949
129.15413
85.30457
0
0
0
471.50949
471.50949
471.50949
0
0
0
471.50949
471.50949
471.50949
0
0
0
0
0
0
0
0
0
0
0
0
0
0
0
0
0
0
0
0
0
0
0
0
0
0
0
0
0
0
0
0
0
0
0
0
0
0
0
0
0
0
0
0
0
0
0
0
0
0
0
0
0
0
0
0
0
0
0
0
0
0
0
0
0
0
0
0
0
0
0
0
0
0
0
0
0
0
0
0
0
0
0
0
0
0
0
0
0
0
0
0
0
0
0
0
0
0
0
0
0
0
0
0
0
0
0
0
0
0
0
0
0
0
0
0
0
0
0
)


549
(
0
0
0
0
284.42858
284.42858
284.42858
284.42858
2.7969387
4.3020127
284.42858
21.901414
91.215093
21.901414
284.42858
284.42858
6.3909254
12.844755
284.42858
4.3020127
12.844755
6.3909254
48.539489
284.42858
284.42858
284.42858
284.42858
144.88828
284.42858
284.42858
4.3020127
12.844755
12.844755
4.3020127
12.844755
4.3020127
284.42858
284.42858
284.42858
12.844755
12.844755
284.42858
284.42858
284.42858
284.42858
284.42858
284.42858
284.42858
284.42858
284.42858
284.42858
284.42858
4.0804129
4.0804129
2.7969387
284.42858
284.42858
284.42858
20.351296
284.42858
284.42858
284.42858
284.42858
26.852931
6.3909254
27.531345
27.531345
2.8904875
2.8904875
6.3909254
284.42858
284.42858
48.539489
26.852931
284.42858
284.42858
284.42858
284.42858
4.0804129
4.0804129
284.42858
284.42858
284.42858
284.42858
284.42858
284.42858
284.42858
284.42858
284.42858
2.7969387
25.001514
25.001514
25.001514
20.351296
7.2540177
7.2540177
7.2540177
4.1310676
4.1310676
4.1310676
11.216504
11.216504
11.216504
9.0117951
9.0117951
9.0117951
284.42858
284.42858
284.42858
284.42858
284.42858
284.42858
26.852931
26.852931
25.001514
2.7969387
2.7969387
20.351296
20.351296
27.531345
27.531345
7.2540177
26.852931
26.852931
11.216504
2.8904875
2.8904875
4.1310676
48.539489
48.539489
9.0117951
284.42858
284.42858
284.42858
284.42858
524.72754
524.72754
35.996879
524.72754
524.72754
6.1377508
524.72754
1.0752052
0.96716
1.6842475
0.21451465
13.053587
524.72754
524.72754
1.1214716
2.6598155
13.053587
37.982148
524.72754
524.72754
156.21628
524.72754
524.72754
11.718661
19.40148
10.22901
7.1148365
11.027711
524.72754
524.72754
1.2279135
0.39896394
1.0247643
0.40104977
0.2738872
0.95053486
13.053587
13.053587
13.053587
524.72754
524.72754
524.72754
524.72754
524.72754
524.72754
524.72754
38.782734
18.373526
18.737117
524.72754
524.72754
524.72754
13.053587
13.053587
13.053587
13.053587
13.053587
524.72754
524.72754
524.72754
524.72754
524.72754
524.72754
524.72754
524.72754
524.72754
524.72754
42.794173
48.345099
57.138872
524.72754
524.72754
524.72754
77.521138
524.72754
98.365256
56.814521
524.72754
62.520572
524.72754
524.72754
524.72754
524.72754
524.72754
524.72754
524.72754
524.72754
13.053587
13.053587
13.053587
13.053587
13.053587
13.053587
13.053587
524.72754
524.72754
524.72754
524.72754
524.72754
524.72754
524.72754
524.72754
524.72754
524.72754
524.72754
524.72754
524.72754
524.72754
524.72754
524.72754
63.499488
524.72754
49.461003
1.3198794
1.278734
1.1769845
13.053587
13.053587
13.053587
1.8136378
13.053587
3.1429255
524.72754
524.72754
524.72754
524.72754
524.72754
13.053587
13.053587
13.053587
13.053587
13.053587
13.053587
524.72754
524.72754
524.72754
524.72754
524.72754
524.72754
524.72754
524.72754
524.72754
1.2275159
0.68490876
1.0400785
524.72754
524.72754
524.72754
32.586372
0.9848174
1.1215942
28.035057
24.943856
1.0627177
524.72754
524.72754
524.72754
1.064912
0.83236941
0.98451323
6.3995658
0.21680799
4.949744
0.22314883
4.7371309
0.22578566
13.053587
524.72754
13.053587
524.72754
13.053587
524.72754
1.3841792
1.5145215
2.6174529
1.7735982
13.053587
3.490192
29.505697
0.89914125
13.276241
0.88501256
22.207395
0.97024415
39.292798
12.297074
41.526241
0.57780535
0.6627276
0.91057598
6.4795635
0.23680491
7.1465388
0.59317208
4.545236
0.35002292
5.2097311
7.042834
5.0279998
0.23168589
0.45421563
0.30845271
13.053587
524.72754
13.053587
524.72754
13.053587
524.72754
1.1698333
39.204846
1.1698702
29.373181
29.670457
1.2492773
3.2792379
108.0589
13.053587
149.71155
94.707202
13.053587
41.146907
1.2935326
36.215089
30.514035
1.703808
1.4569728
75.090522
2.4002338
42.960696
59.887665
2.2010296
2.9982859
524.72754
524.72754
524.72754
1.1708377
1.175245
1.1226808
29.875853
34.208712
26.031071
13.639231
30.341556
22.706796
0.9567547
1.1287778
1.0489227
524.72754
524.72754
524.72754
51.883974
13.099303
44.220852
1.1728535
1.1762118
1.0845998
1.1126325
0.92776924
1.0030236
7.484885
7.0431376
4.8582479
0.87177629
0.76582573
0.51822227
13.053587
13.053587
13.053587
524.72754
524.72754
524.72754
1.2211911
1.6281841
1.4155582
31.713649
47.152784
32.184824
1.924841
2.0291721
1.6509729
51.7445
38.601145
33.067567
13.053587
13.053587
13.053587
165.55912
119.5868
101.91867
2.7557137
13.053587
13.053587
45.034045
81.207715
62.781099
0
0
0
0
0
0
0
0
0
0
0
0
0
0
0
0
0
0
0
0
0
0
0
0
0
0
0
0
0
0
0
0
0
0
0
0
0
0
0
0
0
0
0
0
0
0
0
0
0
0
0
0
0
0
0
0
0
0
0
0
0
0
0
0
0
0
0
0
0
0
0
0
0
0
0
0
0
0
0
0
0
0
0
0
0
0
0
0
0
0
0
0
0
0
0
0
0
0
0
0
0
0
0
0
0
0
0
0
0
0
0
0
0
0
0
0
0
0
0
)

)


// ************************************************************************* //
