/*--------------------------------*- C++ -*----------------------------------*\
  =========                 |
  \\      /  F ield         | OpenFOAM: The Open Source CFD Toolbox
   \\    /   O peration     | Website:  https://openfoam.org
    \\  /    A nd           | Version:  8
     \\/     M anipulation  |
\*---------------------------------------------------------------------------*/
/*   Windows 32 and 64 bit porting by blueCAPE: http://www.bluecape.com.pt   *\
|  Based on Windows porting (2.0.x v4) by Symscape: http://www.symscape.com   |
\*---------------------------------------------------------------------------*/
FoamFile
{
    version     2.0;
    format      ascii;
    class       labelListList;
    location    "constant/vegetation";
    object      subMap;
}
// * * * * * * * * * * * * * * * * * * * * * * * * * * * * * * * * * * * * * //


20
(

54
(
30
31
32
33
40
46
62
63
74
75
76
83
84
85
91
92
93
94
95
96
97
100
113
114
115
116
117
118
119
120
128
129
132
133
134
135
136
137
138
139
140
141
142
143
158
159
160
167
168
169
170
171
172
174
)


245
(
1
2
3
4
5
6
7
8
9
10
11
12
13
14
15
16
17
18
19
20
21
22
23
24
25
26
27
28
29
30
31
32
33
34
36
37
39
40
41
42
43
44
45
48
49
50
55
56
57
58
59
60
61
62
63
64
65
66
67
68
69
70
71
72
73
75
76
79
81
83
84
85
86
87
88
89
90
91
92
93
96
97
98
113
114
115
116
117
118
119
120
121
122
123
124
125
126
127
128
129
130
132
136
137
138
139
140
141
142
143
145
147
148
149
150
151
152
153
154
155
158
159
160
161
162
163
164
165
166
167
168
169
170
176
177
178
179
180
181
182
183
184
187
188
189
190
191
192
193
194
195
196
197
198
199
200
202
204
206
207
208
209
210
211
212
213
214
215
217
218
219
220
221
222
223
224
225
226
227
228
229
230
231
232
233
234
235
236
237
238
240
242
244
247
248
250
253
255
258
259
261
264
265
266
267
268
269
270
271
278
279
280
281
282
283
284
285
286
287
288
289
290
291
292
293
294
295
296
297
298
299
300
301
305
306
307
311
312
313
317
318
319
323
324
325
)

10(1 6 7 8 12 13 14 15 16 29)

74
(
29
30
31
32
33
40
46
52
62
63
73
74
75
76
83
84
85
91
92
93
94
95
96
97
99
100
104
111
113
114
115
116
117
118
119
120
128
129
130
131
132
133
134
135
136
137
138
139
140
141
142
143
158
159
160
167
168
169
170
171
172
173
174
175
205
239
241
302
303
304
320
321
322
327
)


73
(
1
6
8
12
13
14
15
16
29
30
31
32
33
40
46
52
62
63
74
75
76
77
83
84
85
91
92
93
94
95
96
97
99
100
104
105
113
114
115
116
117
118
119
120
128
129
130
131
132
133
134
135
136
137
138
139
140
141
142
143
156
158
159
160
167
168
169
170
171
172
173
174
303
)


196
(
0
2
3
4
5
7
9
10
11
13
17
20
21
25
26
29
30
31
32
33
34
35
36
37
38
39
40
46
47
51
52
53
54
55
56
57
58
59
60
61
62
63
73
74
75
76
77
78
79
80
81
82
83
84
85
91
92
93
94
95
96
97
98
99
100
101
102
103
104
105
106
107
108
109
110
111
112
113
114
115
116
117
118
119
120
128
129
130
131
132
133
134
135
136
137
138
139
140
141
142
143
144
145
146
156
157
158
159
160
167
168
169
170
171
172
173
174
175
179
180
181
182
185
186
188
189
190
194
196
198
201
203
205
212
214
216
218
219
220
224
226
228
230
231
232
237
239
241
243
245
246
249
251
252
254
256
257
260
262
263
266
267
268
272
273
274
275
276
277
281
282
283
284
285
286
293
294
295
302
303
304
308
309
310
314
315
316
320
321
322
326
327
328
329
335
336
)


121
(
2
3
22
23
30
31
32
33
34
37
38
40
46
52
53
55
56
57
58
62
63
73
74
75
76
77
79
80
83
84
85
91
92
93
94
95
96
97
98
99
100
101
103
104
105
106
107
109
111
112
113
114
115
116
117
118
119
120
128
129
130
131
132
133
134
135
136
137
138
139
140
141
142
143
144
145
146
158
159
160
167
168
169
170
171
172
173
174
175
179
180
181
188
189
190
203
205
218
219
220
237
239
241
251
266
267
268
281
282
283
284
285
286
302
303
304
309
314
320
321
327
)


307
(
0
1
2
3
4
5
6
7
8
9
10
11
12
13
14
15
16
17
18
19
20
21
22
23
24
25
26
27
28
29
30
31
32
33
34
35
36
37
38
39
40
41
42
43
44
45
46
47
48
49
50
51
52
53
54
55
56
57
58
59
60
61
62
63
64
65
66
67
68
69
70
71
72
73
74
75
76
77
78
79
81
82
83
84
85
86
87
88
89
90
91
92
93
94
95
96
97
98
99
100
102
104
105
106
107
108
109
110
113
114
115
116
117
118
119
120
121
122
123
124
125
126
127
128
129
130
131
132
133
134
135
136
137
138
139
140
141
142
143
144
145
146
147
148
149
150
151
152
153
154
155
156
157
158
159
160
161
162
163
164
165
166
167
168
169
170
171
172
173
174
175
176
177
178
179
180
181
182
183
184
185
186
187
188
189
190
191
192
193
194
195
196
197
198
199
200
201
202
203
204
205
206
207
208
209
210
211
212
213
214
215
216
217
218
219
220
221
222
223
224
225
226
227
228
229
230
231
232
233
234
235
236
237
238
239
240
241
242
243
244
245
246
247
248
249
250
251
252
253
254
255
256
257
258
259
260
261
262
263
264
265
266
267
268
269
270
271
274
275
277
278
279
280
281
282
283
284
285
286
287
288
289
290
291
292
293
294
295
296
297
298
299
300
301
303
305
306
307
311
312
313
317
318
319
323
324
325
)


60
(
278
279
280
29
287
288
289
290
291
292
293
294
295
39
296
297
298
42
44
59
60
61
64
65
66
67
68
69
81
148
149
177
178
191
192
193
194
195
196
197
198
199
213
215
217
221
222
223
224
225
226
227
228
229
230
231
232
233
234
235
)


217
(
0
1
2
3
4
5
6
7
8
9
10
11
12
13
14
15
16
17
18
19
20
21
22
23
24
25
26
27
28
29
34
35
36
37
39
41
42
43
44
45
47
48
49
50
51
54
55
56
57
58
59
60
61
64
65
66
67
68
69
70
71
72
73
79
81
86
87
88
89
90
91
92
98
102
110
121
122
123
124
125
126
127
130
145
147
148
149
150
151
152
153
154
155
161
162
163
164
165
166
176
177
178
179
180
181
182
183
184
186
187
188
189
190
191
192
193
194
195
196
197
198
199
200
201
202
204
206
207
208
209
210
211
212
213
214
215
216
217
218
219
220
221
222
223
224
225
226
227
228
229
230
231
232
233
234
235
236
237
238
240
242
243
244
247
248
250
253
254
255
258
259
261
264
265
266
267
268
269
270
271
275
278
279
280
281
282
283
284
285
286
287
288
289
290
291
292
293
294
295
296
297
298
299
300
301
305
306
307
311
312
313
317
318
319
323
324
325
)


339
(
0
1
2
3
4
5
6
7
8
9
10
11
12
13
14
15
16
17
18
19
20
21
22
23
24
25
26
27
28
29
30
31
32
33
34
35
36
37
38
39
40
41
42
43
44
45
46
47
48
49
50
51
52
53
54
55
56
57
58
59
60
61
62
63
64
65
66
67
68
69
70
71
72
73
74
75
76
77
78
79
80
81
82
83
84
85
86
87
88
89
90
91
92
93
94
95
96
97
98
99
100
101
102
103
104
105
106
107
108
109
110
111
112
113
114
115
116
117
118
119
120
121
122
123
124
125
126
127
128
129
130
131
132
133
134
135
136
137
138
139
140
141
142
143
144
145
146
147
148
149
150
151
152
153
154
155
156
157
158
159
160
161
162
163
164
165
166
167
168
169
170
171
172
173
174
175
176
177
178
179
180
181
182
183
184
185
186
187
188
189
190
191
192
193
194
195
196
197
198
199
200
201
202
203
204
205
206
207
208
209
210
211
212
213
214
215
216
217
218
219
220
221
222
223
224
225
226
227
228
229
230
231
232
233
234
235
236
237
238
239
240
241
242
243
244
245
246
247
248
249
250
251
252
253
254
255
256
257
258
259
260
261
262
263
264
265
266
267
268
269
270
271
272
273
274
275
276
277
278
279
280
281
282
283
284
285
286
287
288
289
290
291
292
293
294
295
296
297
298
299
300
301
302
303
304
305
306
307
308
309
310
311
312
313
314
315
316
317
318
319
320
321
322
323
324
325
326
327
328
329
330
331
332
333
334
335
336
337
338
)


203
(
0
1
2
3
4
5
6
7
9
10
11
14
16
17
20
21
22
23
25
26
29
34
35
36
37
38
39
40
46
47
51
52
53
54
55
56
57
58
59
60
61
62
63
73
74
75
76
77
78
79
80
81
82
83
84
85
91
92
93
94
95
96
97
98
99
100
101
102
103
104
105
106
107
108
109
110
111
112
113
114
115
116
117
118
119
120
128
129
130
131
132
133
134
135
136
137
138
139
140
141
142
143
144
145
146
156
157
158
159
160
167
168
169
170
171
172
173
174
175
179
180
181
182
185
186
188
189
190
194
196
198
201
203
205
212
214
216
218
219
220
224
226
228
230
231
232
237
239
241
243
245
246
249
251
252
254
256
257
260
262
263
266
267
268
272
273
274
275
276
277
281
282
283
284
285
286
293
294
295
302
303
304
308
309
310
314
315
316
320
321
322
326
327
328
329
330
331
332
333
334
335
336
338
)


154
(
0
1
5
6
7
8
9
11
12
13
14
15
16
17
18
19
24
27
28
29
30
31
32
33
41
42
43
44
45
48
49
50
64
65
66
67
68
69
70
71
72
86
87
88
89
90
121
122
123
124
125
126
127
147
148
149
150
151
152
153
154
155
161
162
163
164
165
166
176
177
178
183
184
187
191
192
193
195
197
199
200
202
204
206
207
208
209
210
211
213
215
217
221
222
223
225
227
229
233
234
235
236
238
240
242
244
247
248
250
253
255
258
259
261
264
265
269
270
271
278
279
280
287
288
289
290
291
292
296
297
298
299
300
301
305
306
307
311
312
313
317
318
319
323
324
325
329
330
331
332
333
334
337
338
)


17
(
1
8
12
13
14
15
18
19
24
27
28
29
30
31
32
33
338
)


204
(
0
2
3
4
5
6
7
9
10
11
14
16
17
20
21
22
23
25
26
29
30
31
32
33
34
35
36
37
38
39
40
46
47
51
52
53
54
55
56
57
58
59
60
61
62
63
73
74
75
76
77
78
79
80
81
82
83
84
85
91
92
93
94
95
96
97
98
99
100
101
102
103
104
105
106
107
108
109
110
111
112
113
114
115
116
117
118
119
120
128
129
130
131
132
133
134
135
136
137
138
139
140
141
142
143
144
145
146
156
157
158
159
160
167
168
169
170
171
172
173
174
175
179
180
181
182
185
186
188
189
190
194
196
198
201
203
205
212
214
216
218
219
220
224
226
228
230
231
232
237
239
241
243
245
246
249
251
252
254
256
257
260
262
263
266
267
268
272
273
274
275
276
277
281
282
283
284
285
286
293
294
295
302
303
304
308
309
310
314
315
316
320
321
322
326
327
328
329
331
332
334
335
336
338
)


334
(
0
1
2
3
4
5
6
7
8
9
10
11
12
13
14
15
16
17
18
19
20
21
22
23
24
25
26
27
28
29
30
31
32
33
34
35
36
37
38
39
40
41
42
43
44
45
46
47
48
49
50
51
52
53
54
55
56
57
58
59
60
61
62
63
64
65
66
67
68
69
70
71
72
73
74
75
76
77
78
79
80
81
82
83
84
85
86
87
88
89
90
91
92
93
94
95
96
97
98
99
100
101
102
103
104
105
106
107
108
109
110
111
112
113
114
115
116
117
118
119
120
121
122
123
124
125
126
127
128
129
130
131
132
133
134
135
136
137
138
139
140
141
142
143
144
145
146
147
148
149
150
151
152
153
154
155
156
157
158
159
160
161
162
163
164
165
166
167
168
169
170
171
172
173
174
175
176
177
178
179
180
181
182
183
184
185
186
187
188
189
190
191
192
193
194
195
196
197
198
199
200
201
202
203
204
205
206
207
208
209
210
211
212
213
214
215
216
217
218
219
220
221
222
223
224
225
226
227
228
229
230
231
232
233
234
235
236
237
238
239
240
241
242
243
244
245
246
247
248
249
250
251
252
253
254
255
256
257
258
259
260
261
262
263
264
265
266
267
268
269
270
271
272
273
274
275
276
277
278
279
280
281
282
283
284
285
286
287
288
289
290
291
292
293
294
295
296
297
298
299
300
301
302
303
304
305
306
307
308
309
310
311
312
313
314
315
316
317
318
319
320
321
322
323
324
325
326
327
328
329
330
333
336
337
)


335
(
0
1
2
3
4
5
6
7
8
9
10
11
12
13
14
15
16
17
18
19
20
21
22
23
24
25
26
27
28
29
30
31
32
33
34
35
36
37
38
39
40
41
42
43
44
45
46
47
48
49
50
51
52
53
54
55
56
57
58
59
60
61
62
63
64
65
66
67
68
69
70
71
72
73
74
75
76
77
78
79
80
81
82
83
84
85
86
87
88
89
90
91
92
93
94
95
96
97
98
99
100
101
102
103
104
105
106
107
108
109
110
111
112
113
114
115
116
117
118
119
120
121
122
123
124
125
126
127
128
129
130
131
132
133
134
135
136
137
138
139
140
141
142
143
144
145
146
147
148
149
150
151
152
153
154
155
156
157
158
159
160
161
162
163
164
165
166
167
168
169
170
171
172
173
174
175
176
177
178
179
180
181
182
183
184
185
186
187
188
189
190
191
192
193
194
195
196
197
198
199
200
201
202
203
204
205
206
207
208
209
210
211
212
213
214
215
216
217
218
219
220
221
222
223
224
225
226
227
228
229
230
231
232
233
234
235
236
237
238
239
240
241
242
243
244
245
246
247
248
249
250
251
252
253
254
255
256
257
258
259
260
261
262
263
264
265
266
267
268
269
270
271
272
273
274
275
276
277
278
279
280
281
282
283
284
285
286
287
288
289
290
291
292
293
294
295
296
297
298
299
300
301
302
303
304
305
306
307
308
309
310
311
312
313
314
315
316
317
318
319
320
321
322
323
324
325
326
327
328
329
334
335
336
337
338
)


321
(
0
1
2
3
4
5
6
7
8
9
10
11
12
13
14
15
16
17
18
19
20
21
22
23
24
25
26
27
28
29
30
31
32
33
34
35
36
37
38
39
40
41
42
43
44
46
47
48
49
51
52
53
54
55
56
57
58
59
60
61
62
63
64
65
66
67
68
69
71
72
73
74
75
76
77
78
79
80
81
82
83
84
85
86
87
89
90
91
92
93
94
95
96
97
98
99
100
101
102
103
104
105
106
107
108
109
110
111
112
113
114
115
116
117
118
119
120
121
122
123
124
125
126
127
128
129
130
131
132
133
134
135
136
137
138
139
140
141
142
143
144
145
146
147
148
149
150
151
152
153
154
155
156
157
158
159
160
161
162
163
164
165
166
167
168
169
170
171
172
173
174
175
176
177
178
179
180
181
182
183
184
185
186
187
188
189
190
191
192
193
194
195
196
197
198
199
201
202
203
205
206
207
208
209
210
211
212
213
214
215
216
217
218
219
220
221
222
223
224
225
226
227
228
229
230
231
232
233
234
235
237
238
239
240
241
242
243
244
245
246
247
249
250
251
252
253
254
255
256
257
258
259
260
261
262
263
264
265
266
267
268
269
270
271
272
273
274
275
276
277
278
279
280
281
282
283
284
285
286
287
288
289
290
291
292
293
294
295
296
297
298
299
300
301
302
303
304
305
306
307
308
309
310
311
312
313
314
315
316
317
318
319
320
321
322
323
324
325
326
327
328
)


201
(
0
1
2
3
4
5
6
7
8
9
10
11
12
13
14
15
16
17
18
20
21
22
23
25
26
29
34
35
36
37
38
39
40
46
47
51
52
53
54
55
56
57
58
59
60
61
62
63
73
74
75
76
77
78
79
80
81
82
83
84
85
91
92
93
94
95
96
97
98
99
100
101
102
103
104
105
106
107
108
109
110
111
112
113
114
115
116
117
118
119
120
128
129
130
131
132
133
134
135
136
137
138
139
140
141
142
143
144
145
146
156
157
158
159
160
167
168
169
170
171
172
173
174
175
179
180
181
182
185
186
188
189
190
194
196
198
201
203
205
212
214
216
218
219
220
224
226
228
230
231
232
237
239
241
243
245
246
249
251
252
254
256
257
260
262
263
266
267
268
272
273
274
275
276
277
281
282
283
284
285
286
293
294
295
302
303
304
308
309
310
314
315
316
320
321
322
326
327
328
329
336
)


205
(
0
1
2
3
4
5
6
7
9
10
11
12
13
14
16
17
18
20
21
22
23
25
26
29
30
31
32
33
34
35
36
37
38
39
40
46
47
51
52
53
54
55
56
57
58
59
60
61
62
63
73
74
75
76
77
78
79
80
81
82
83
84
85
91
92
93
94
95
96
97
98
99
100
101
102
103
104
105
106
107
108
109
110
111
112
113
114
115
116
117
118
119
120
128
129
130
131
132
133
134
135
136
137
138
139
140
141
142
143
144
145
146
156
157
158
159
160
167
168
169
170
171
172
173
174
175
179
180
181
182
185
186
188
189
190
194
196
198
201
203
205
212
214
216
218
219
220
224
226
228
230
231
232
237
239
241
243
245
246
249
251
252
254
256
257
260
262
263
266
267
268
272
273
274
275
276
277
281
282
283
284
285
286
293
294
295
302
303
304
308
309
310
314
315
316
320
321
322
326
327
328
329
334
335
336
)

)


// ************************************************************************* //
