/*--------------------------------*- C++ -*----------------------------------*\
  =========                 |
  \\      /  F ield         | OpenFOAM: The Open Source CFD Toolbox
   \\    /   O peration     | Website:  https://openfoam.org
    \\  /    A nd           | Version:  8
     \\/     M anipulation  |
\*---------------------------------------------------------------------------*/
/*   Windows 32 and 64 bit porting by blueCAPE: http://www.bluecape.com.pt   *\
|  Based on Windows porting (2.0.x v4) by Symscape: http://www.symscape.com   |
\*---------------------------------------------------------------------------*/
FoamFile
{
    version     2.0;
    format      ascii;
    class       scalarListList;
    location    "constant/vegetation";
    object      sunViewCoeff;
}
// * * * * * * * * * * * * * * * * * * * * * * * * * * * * * * * * * * * * * //


5
(

339
(
568.69954
717.08284
717.08284
717.08284
717.08284
398.95029
717.08284
513.41095
0
717.08284
717.08284
673.97566
0
575.02502
717.08284
0
618.86443
717.08284
0
0
717.08284
717.08284
717.08284
717.08284
0
717.08284
717.08284
0
0
0
717.08284
717.08284
717.08284
717.08284
80.639504
80.639504
80.639504
80.639504
80.639504
80.639504
80.639504
0
0
0
0
0
80.639504
80.639504
0
0
0
80.639504
80.639504
80.639504
80.639504
80.639504
80.639504
80.639504
80.639504
80.639504
80.639504
80.639504
80.639504
80.639504
0
0
0
0
0
0
0
0
0
80.639504
80.639504
80.639504
80.639504
80.639504
80.639504
80.639504
80.639504
80.639504
80.639504
80.639504
80.639504
80.639504
0
0
0
0
0
80.639504
80.639504
80.639504
80.639504
80.639504
80.639504
80.639504
80.639504
80.639504
80.639504
80.639504
80.639504
80.639504
80.639504
80.639504
80.639504
80.639504
80.639504
80.639504
80.639504
80.639504
80.639504
80.639504
80.639504
80.639504
80.639504
80.639504
80.639504
80.639504
80.639504
0
0
0
0
0
0
0
80.639504
80.639504
80.639504
80.639504
80.639504
80.639504
80.639504
80.639504
80.639504
80.639504
80.639504
80.639504
80.639504
80.639504
80.639504
80.639504
80.639504
80.639504
80.639504
0
0
0
0
0
0
0
0
0
80.639504
80.639504
80.639504
80.639504
80.639504
0
0
0
0
0
0
80.639504
80.639504
80.639504
80.639504
80.639504
80.639504
80.639504
80.639504
80.639504
0
0
0
80.639504
80.639504
80.639504
80.639504
0
0
80.639504
80.639504
0
80.639504
80.639504
80.639504
0
0
0
80.639504
0
80.639504
0
80.639504
0
0
80.639504
0
80.639504
0
80.639504
0
0
0
0
0
0
80.639504
0
80.639504
0
80.639504
0
80.639504
80.639504
80.639504
0
0
0
80.639504
0
80.639504
0
80.639504
0
80.639504
80.639504
80.639504
0
0
0
0
80.639504
0
80.639504
0
80.639504
0
80.639504
0
80.639504
80.639504
0
0
80.639504
0
80.639504
80.639504
0
80.639504
0
80.639504
80.639504
0
0
80.639504
0
80.639504
80.639504
0
0
80.639504
80.639504
80.639504
0
0
0
80.639504
80.639504
80.639504
80.639504
80.639504
80.639504
0
0
0
80.639504
80.639504
80.639504
80.639504
80.639504
80.639504
0
0
0
0
0
0
80.639504
80.639504
80.639504
0
0
0
0
0
0
80.639504
80.639504
80.639504
0
0
0
80.639504
80.639504
80.639504
0
0
0
80.639504
80.639504
80.639504
0
0
0
80.639504
80.639504
80.639504
0
0
0
80.639504
80.639504
80.639504
0
0
0
0
0
65.624846
29.775306
9.0953164
0
128.35503
)


339
(
585.76158
585.76158
585.76158
585.76158
585.76158
20.678282
585.76158
497.16946
0
542.36674
585.76158
476.89278
135.38321
585.76158
516.80592
238.01111
45.86109
42.382984
560.53344
0
585.76158
585.76158
585.76158
585.76158
0
585.76158
585.76158
0
0
0
585.76158
585.76158
585.76158
585.76158
227.80796
227.80796
227.80796
227.80796
227.80796
227.80796
227.80796
0
0
0
0
0
227.80796
227.80796
0
0
0
227.80796
227.80796
227.80796
227.80796
227.80796
227.80796
227.80796
227.80796
227.80796
227.80796
227.80796
227.80796
227.80796
0
0
0
0
0
0
0
0
0
227.80796
227.80796
227.80796
227.80796
227.80796
227.80796
227.80796
227.80796
227.80796
227.80796
227.80796
227.80796
227.80796
0
0
0
0
0
227.80796
227.80796
227.80796
227.80796
227.80796
227.80796
227.80796
227.80796
227.80796
227.80796
227.80796
227.80796
227.80796
227.80796
227.80796
227.80796
227.80796
227.80796
227.80796
227.80796
227.80796
227.80796
227.80796
227.80796
227.80796
227.80796
227.80796
227.80796
227.80796
227.80796
0
0
0
0
0
0
0
227.80796
227.80796
227.80796
227.80796
227.80796
227.80796
227.80796
227.80796
227.80796
227.80796
227.80796
227.80796
227.80796
227.80796
227.80796
227.80796
227.80796
227.80796
227.80796
0
0
0
0
0
0
0
0
0
227.80796
227.80796
227.80796
227.80796
227.80796
0
0
0
0
0
0
227.80796
227.80796
227.80796
227.80796
227.80796
227.80796
227.80796
227.80796
227.80796
0
0
0
227.80796
227.80796
227.80796
227.80796
0
0
227.80796
227.80796
0
227.80796
227.80796
227.80796
0
0
0
227.80796
0
227.80796
0
227.80796
0
0
227.80796
0
227.80796
0
227.80796
0
0
0
0
0
0
227.80796
0
227.80796
0
227.80796
0
227.80796
227.80796
227.80796
0
0
0
227.80796
0
227.80796
0
227.80796
0
227.80796
227.80796
227.80796
0
0
0
0
227.80796
0
227.80796
0
227.80796
0
227.80796
0
227.80796
227.80796
0
0
227.80796
0
227.80796
227.80796
0
227.80796
0
227.80796
227.80796
0
0
227.80796
0
227.80796
227.80796
0
0
227.80796
227.80796
227.80796
0
0
0
227.80796
227.80796
227.80796
227.80796
227.80796
227.80796
0
0
0
227.80796
227.80796
227.80796
227.80796
227.80796
227.80796
0
0
0
0
0
0
227.80796
227.80796
227.80796
0
0
0
0
0
0
227.80796
227.80796
227.80796
0
0
0
227.80796
227.80796
227.80796
0
0
0
227.80796
227.80796
227.80796
0
0
0
227.80796
227.80796
227.80796
0
0
0
227.80796
227.80796
227.80796
0
0
0
0
0
35.874222
0
6.907319
0
11.530184
)


339
(
536.2201
536.2201
456.36773
536.2201
31.854072
23.33593
536.2201
23.583231
486.73306
536.2201
433.6747
358.37072
68.736972
526.49029
179.7604
536.2201
179.32766
22.659664
36.137569
0
536.2201
47.481669
536.2201
536.2201
0
536.2201
453.47243
0
0
0
536.2201
536.2201
536.2201
536.2201
381.92334
381.92334
106.06697
381.92334
381.92334
19.390928
381.92334
0
0
0
0
0
381.92334
381.92334
0
0
0
381.92334
381.92334
381.92334
381.92334
381.92334
381.92334
381.92334
381.92334
26.464002
381.92334
381.92334
381.92334
381.92334
0
0
0
0
0
0
0
0
0
381.92334
381.92334
381.92334
381.92334
381.92334
381.92334
381.92334
381.92334
32.170166
381.92334
381.92334
381.92334
381.92334
0
0
0
0
0
381.92334
381.92334
381.92334
381.92334
381.92334
381.92334
381.92334
381.92334
381.92334
381.92334
381.92334
381.92334
381.92334
381.92334
381.92334
381.92334
381.92334
381.92334
381.92334
381.92334
381.92334
381.92334
381.92334
381.92334
381.92334
381.92334
381.92334
381.92334
381.92334
381.92334
0
0
0
0
0
0
0
381.92334
381.92334
381.92334
381.92334
381.92334
381.92334
381.92334
381.92334
381.92334
381.92334
381.92334
381.92334
381.92334
381.92334
381.92334
381.92334
381.92334
381.92334
381.92334
0
0
0
0
0
0
0
0
0
381.92334
381.92334
381.92334
381.92334
381.92334
0
0
0
0
0
0
381.92334
381.92334
381.92334
381.92334
381.92334
381.92334
381.92334
381.92334
381.92334
0
0
0
381.92334
381.92334
381.92334
67.872043
0
0
381.92334
87.379151
0
381.92334
381.92334
381.92334
0
0
0
18.077927
0
29.635347
0
31.360671
0
0
381.92334
0
381.92334
0
381.92334
0
0
0
0
0
0
42.968806
0
49.923104
0
62.544031
0
381.92334
381.92334
381.92334
0
0
0
21.669031
0
43.237285
0
36.971173
0
48.51333
381.92334
54.685802
0
0
0
0
381.92334
0
381.92334
0
381.92334
0
381.92334
0
381.92334
381.92334
0
0
381.92334
0
381.92334
381.92334
0
381.92334
0
381.92334
381.92334
0
0
381.92334
0
381.92334
381.92334
0
0
381.92334
381.92334
381.92334
0
0
0
381.92334
381.92334
381.92334
381.92334
381.92334
381.92334
0
0
0
381.92334
381.92334
381.92334
381.92334
381.92334
381.92334
0
0
0
0
0
0
82.309942
381.92334
66.82944
0
0
0
0
0
0
381.92334
381.92334
381.92334
0
0
0
381.92334
381.92334
381.92334
0
0
0
381.92334
381.92334
381.92334
0
0
0
381.92334
381.92334
381.92334
0
0
0
381.92334
381.92334
381.92334
0
0
0
0
0
0
0
0
0
0
)


339
(
411.8157
411.8157
411.8157
411.8157
26.661909
16.757182
411.8157
32.591504
46.957255
411.8157
53.896833
338.75578
27.037517
398.64459
266.70149
56.670077
355.23918
27.35927
26.152258
24.691057
411.8157
34.662878
411.8157
411.8157
0
146.07254
43.407026
0
19.649424
0
411.8157
411.8157
411.8157
411.8157
471.50949
471.50949
24.527816
471.50949
471.50949
29.135409
471.50949
0
0
0
0
0
471.50949
471.50949
0
0
0
33.740845
471.50949
471.50949
471.50949
471.50949
471.50949
79.687308
62.868015
23.07062
45.963262
46.968517
471.50949
471.50949
0
0
0
0
0
0
0
0
0
471.50949
471.50949
471.50949
471.50949
471.50949
471.50949
471.50949
67.831937
21.855354
49.18119
471.50949
471.50949
471.50949
0
0
0
0
0
471.50949
471.50949
471.50949
471.50949
471.50949
471.50949
471.50949
471.50949
471.50949
471.50949
84.831822
106.33466
471.50949
471.50949
471.50949
471.50949
471.50949
471.50949
471.50949
163.37107
471.50949
471.50949
471.50949
471.50949
471.50949
471.50949
471.50949
471.50949
471.50949
471.50949
0
0
0
0
0
0
0
471.50949
471.50949
471.50949
471.50949
471.50949
471.50949
471.50949
471.50949
471.50949
471.50949
471.50949
471.50949
471.50949
471.50949
471.50949
471.50949
471.50949
471.50949
471.50949
0
0
0
0
0
0
0
0
0
471.50949
471.50949
471.50949
471.50949
471.50949
0
0
0
0
0
0
471.50949
471.50949
471.50949
471.50949
471.50949
471.50949
471.50949
471.50949
471.50949
0
0
0
471.50949
471.50949
471.50949
21.563784
0
0
26.653891
23.401692
0
471.50949
471.50949
471.50949
0
0
0
27.202306
0
29.585901
0
27.759842
0
0
471.50949
0
471.50949
0
471.50949
0
0
0
0
0
0
21.693239
0
24.257691
0
23.807754
0
471.50949
71.692062
471.50949
0
0
0
25.030684
0
25.107649
0
26.333864
0
32.735573
44.372608
32.003928
0
0
0
0
471.50949
0
471.50949
0
471.50949
0
46.84415
0
35.090528
46.442943
0
0
471.50949
0
471.50949
471.50949
0
68.743366
0
108.5959
68.051552
0
0
471.50949
0
172.38096
471.50949
0
0
471.50949
471.50949
471.50949
0
0
0
39.217945
56.038476
34.433101
34.132917
52.987738
34.388497
0
0
0
471.50949
471.50949
471.50949
471.50949
65.346105
471.50949
0
0
0
0
0
0
33.713321
45.083451
33.000804
0
0
0
0
0
0
471.50949
471.50949
471.50949
0
0
0
48.902628
106.64408
61.095495
0
0
0
471.50949
129.15413
85.30457
0
0
0
471.50949
471.50949
471.50949
0
0
0
471.50949
471.50949
471.50949
0
0
0
0
0
0
0
0
0
0
)


339
(
0
284.42858
284.42858
284.42858
2.7969387
4.3020127
284.42858
137.19363
240.00287
284.42858
6.3909254
12.844755
155.29116
284.42858
284.42858
272.18614
284.42858
4.0804129
114.96788
26.852931
27.531345
2.8904875
284.42858
284.42858
25.001514
7.2540177
4.1310676
11.216504
9.0117951
0
284.42858
284.42858
284.42858
284.42858
524.72754
524.72754
35.996879
524.72754
524.72754
6.1377508
524.72754
1.0752052
0.96716
1.6842475
0.21451465
13.053587
524.72754
524.72754
1.1214716
2.6598155
13.053587
37.982148
524.72754
524.72754
156.21628
524.72754
524.72754
11.718661
19.40148
10.22901
7.1148365
11.027711
524.72754
524.72754
1.2279135
0.39896394
1.0247643
0.40104977
0.2738872
0.95053486
13.053587
13.053587
13.053587
524.72754
524.72754
524.72754
524.72754
524.72754
524.72754
524.72754
38.782734
18.373526
18.737117
524.72754
524.72754
524.72754
13.053587
13.053587
13.053587
13.053587
13.053587
524.72754
524.72754
524.72754
524.72754
524.72754
524.72754
524.72754
524.72754
524.72754
524.72754
42.794173
48.345099
57.138872
524.72754
524.72754
524.72754
77.521138
524.72754
98.365256
56.814521
524.72754
62.520572
524.72754
524.72754
524.72754
524.72754
524.72754
524.72754
524.72754
524.72754
13.053587
13.053587
13.053587
13.053587
13.053587
13.053587
13.053587
524.72754
524.72754
524.72754
524.72754
524.72754
524.72754
524.72754
524.72754
524.72754
524.72754
524.72754
524.72754
524.72754
524.72754
524.72754
524.72754
63.499488
524.72754
49.461003
1.3198794
1.278734
1.1769845
13.053587
13.053587
13.053587
1.8136378
13.053587
3.1429255
524.72754
524.72754
524.72754
524.72754
524.72754
13.053587
13.053587
13.053587
13.053587
13.053587
13.053587
524.72754
524.72754
524.72754
524.72754
524.72754
524.72754
524.72754
524.72754
524.72754
1.2275159
0.68490876
1.0400785
524.72754
524.72754
524.72754
32.586372
0.9848174
1.1215942
28.035057
24.943856
1.0627177
524.72754
524.72754
524.72754
1.064912
0.83236941
0.98451323
6.3995658
0.21680799
4.949744
0.22314883
4.7371309
0.22578566
13.053587
524.72754
13.053587
524.72754
13.053587
524.72754
1.3841792
1.5145215
2.6174529
1.7735982
13.053587
3.490192
29.505697
0.89914125
13.276241
0.88501256
22.207395
0.97024415
39.292798
12.297074
41.526241
0.57780535
0.6627276
0.91057598
6.4795635
0.23680491
7.1465388
0.59317208
4.545236
0.35002292
5.2097311
7.042834
5.0279998
0.23168589
0.45421563
0.30845271
13.053587
524.72754
13.053587
524.72754
13.053587
524.72754
1.1698333
39.204846
1.1698702
29.373181
29.670457
1.2492773
3.2792379
108.0589
13.053587
149.71155
94.707202
13.053587
41.146907
1.2935326
36.215089
30.514035
1.703808
1.4569728
75.090522
2.4002338
42.960696
59.887665
2.2010296
2.9982859
524.72754
524.72754
524.72754
1.1708377
1.175245
1.1226808
29.875853
34.208712
26.031071
13.639231
30.341556
22.706796
0.9567547
1.1287778
1.0489227
524.72754
524.72754
524.72754
51.883974
13.099303
44.220852
1.1728535
1.1762118
1.0845998
1.1126325
0.92776924
1.0030236
7.484885
7.0431376
4.8582479
0.87177629
0.76582573
0.51822227
13.053587
13.053587
13.053587
524.72754
524.72754
524.72754
1.2211911
1.6281841
1.4155582
31.713649
47.152784
32.184824
1.924841
2.0291721
1.6509729
51.7445
38.601145
33.067567
13.053587
13.053587
13.053587
165.55912
119.5868
101.91867
2.7557137
13.053587
13.053587
45.034045
81.207715
62.781099
0
0
0
0
0
0
0
0
0
0
)

)


// ************************************************************************* //
