/*--------------------------------*- C++ -*----------------------------------*\
  =========                 |
  \\      /  F ield         | OpenFOAM: The Open Source CFD Toolbox
   \\    /   O peration     | Website:  https://openfoam.org
    \\  /    A nd           | Version:  8
     \\/     M anipulation  |
\*---------------------------------------------------------------------------*/
/*   Windows 32 and 64 bit porting by blueCAPE: http://www.bluecape.com.pt   *\
|  Based on Windows porting (2.0.x v4) by Symscape: http://www.symscape.com   |
\*---------------------------------------------------------------------------*/
FoamFile
{
    version     2.0;
    format      ascii;
    class       scalarListList;
    location    "constant/air";
    object      divqrsw;
}
// * * * * * * * * * * * * * * * * * * * * * * * * * * * * * * * * * * * * * //


5
(

2246
(
0
0
0
0
0
0
0
0
0
0
0
0
0
0
0
0
0
0
0
0
0
0
0
0
0
0
0
0
0
0
0
0
0
0
0
0
0
0
0
0
0
0
0
0
0
0
0
0
0
0
0
0
0
0
0
0
0
0
0
0
0
0
0
0
0
0
0
0
0
-102.76675
0
-37.200426
-136.73732
-101.80956
-28.041859
-136.60758
0
0
0
0
0
0
0
0
0
0
0
0
0
0
0
0
0
0
0
0
-150.1592
0
-138.85101
0
0
0
0
0
0
0
0
0
0
-137.53344
0
-139.75473
0
0
0
0
0
0
0
0
0
-123.41993
0
-33.269919
0
-119.51525
-29.241037
-148.99959
0
0
0
0
0
0
0
0
0
0
0
0
0
0
0
0
0
0
0
0
0
0
0
0
0
0
0
0
0
0
0
0
0
0
0
0
0
0
0
0
0
0
0
0
0
0
0
0
0
0
0
0
0
0
0
0
0
0
0
0
0
0
0
0
0
0
-205.08104
0
-129.62783
0
0
-146.46591
-183.2938
0
0
0
0
-131.69942
0
-124.825
0
-134.92521
0
-119.53235
0
0
0
0
0
0
0
0
0
0
0
0
0
0
-118.55656
0
0
-161.06947
0
0
-23.600329
0
0
0
0
0
-27.773665
0
0
0
0
0
0
0
0
-117.76436
0
0
0
0
0
0
0
0
0
0
0
0
-146.36047
0
0
0
0
0
0
0
0
0
0
0
0
0
0
0
0
0
0
0
0
0
0
0
0
0
0
0
0
0
0
0
0
0
0
0
0
0
0
0
0
0
0
0
0
0
0
-102.94405
0
-142.56976
-72.647787
0
0
0
-176.88678
0
0
-133.58877
-116.11952
-167.6842
-70.221339
-106.62116
-75.125449
-148.42474
-134.741
-173.98265
0
-95.923695
0
-163.97007
0
0
-161.94575
0
-103.49832
-49.707565
-116.95349
-54.76128
-132.20804
0
-114.36691
0
-146.80192
-136.60527
-99.223557
-197.33603
-97.428377
0
-36.038229
-62.312793
-39.750371
-74.530286
-67.668752
-101.31519
-67.359216
-78.707037
-35.395331
0
0
0
0
0
0
0
-29.134776
-45.050646
-16.46666
-45.719983
-27.847385
0
-109.2728
0
-50.684124
-125.89567
-87.233446
-91.582649
0
0
0
0
0
-143.06822
0
-200.96814
0
0
0
0
-114.35059
0
-131.385
0
-180.29443
-182.3705
-152.12418
-227.12111
-187.3238
-228.55689
-171.21812
0
0
0
0
0
0
0
0
0
0
-164.91595
-149.81701
-196.4545
-220.65846
0
0
0
0
0
0
0
-170.58169
0
-205.64789
0
-205.53372
0
-148.79415
0
0
0
0
0
0
0
0
0
0
0
0
0
0
0
0
0
0
0
-205.57293
0
-85.039784
-83.208288
-152.23994
-214.79449
-84.024659
-233.51293
0
0
0
0
0
0
0
0
0
0
0
0
0
0
0
0
0
0
-151.46834
-93.288947
-234.48477
0
0
-210.84832
0
-213.19066
0
0
0
0
0
0
0
0
0
0
0
0
0
0
0
0
0
-182.89639
-69.804339
0
-137.76438
0
0
0
0
-93.162844
0
-152.98267
0
0
0
-58.191549
-130.42112
0
-138.47327
0
0
0
0
0
0
0
0
0
0
0
-86.839826
-65.301562
0
-39.623003
0
0
0
0
0
0
0
-53.921403
0
0
-29.798799
0
0
0
0
0
0
0
0
0
0
0
-196.13489
-214.54872
0
-145.97356
0
0
0
-192.4521
0
0
0
0
0
0
0
0
0
0
0
0
0
0
0
0
0
0
0
0
0
0
0
0
0
0
0
0
0
0
0
0
0
0
0
0
0
0
0
0
0
0
0
0
0
0
0
0
0
0
0
0
0
0
0
0
0
0
0
0
0
0
0
0
0
0
0
0
0
0
0
0
0
0
0
0
0
0
0
-139.43403
-133.82581
-137.31814
-144.27295
-152.13997
-136.02892
-161.26119
-33.723799
-27.732539
-34.661192
-27.076454
-34.23678
-27.239902
-33.592563
-135.2898
-131.10668
-128.72958
-132.58806
-149.35019
-132.1712
-147.69319
-126.90538
-134.79318
-124.27605
-176.69746
-170.66257
-173.7107
-174.60146
-112.94874
0
-107.76314
0
-116.60142
0
-104.56197
-166.09554
-136.6355
-137.66251
-166.57845
-166.42138
-136.60928
-165.45783
0
0
0
-171.01544
-170.0062
-161.76155
-179.50258
-101.22684
0
-99.673908
0
0
-111.83553
0
0
0
0
0
0
0
0
0
0
0
0
0
0
0
-122.5437
-135.27452
-103.19487
-129.35189
-111.23086
-111.28185
-143.36296
-57.640811
-39.300748
-42.522417
-38.439306
-48.071943
-49.991049
-45.934183
0
0
0
0
0
0
0
0
0
-104.52743
-120.74605
-98.962194
-125.25738
-126.12343
-99.024841
-104.78719
-33.201142
-36.468558
-26.683746
-31.890993
-26.086477
-33.496942
-40.0215
-182.14828
-161.56863
-175.32614
-151.74488
-173.27176
-184.97768
-165.83556
0
0
0
0
0
0
0
0
0
0
0
0
0
0
0
0
0
0
0
-155.29136
-141.57623
-185.10175
-218.46373
-128.91777
-206.68408
-168.72824
-122.40171
0
-148.52424
-142.86934
-92.372686
0
-166.19208
0
0
0
0
0
0
0
-135.90523
-159.91816
0
-157.96231
-104.32208
-112.41956
-176.12569
-145.26836
-209.7792
-173.32764
-114.54736
-110.38482
-200.33484
-157.5013
0
0
0
-14.961957
-18.414825
0
0
0
0
0
0
0
0
0
0
0
0
0
0
0
0
0
0
0
0
0
0
0
0
-139.23746
0
-143.39133
0
-141.75492
0
0
0
-132.41017
-128.77129
0
0
-133.36307
0
-138.97773
0
-136.98241
-52.703839
0
-134.03203
0
-136.28934
-132.3766
0
0
-140.17742
0
0
0
0
0
0
0
0
0
0
0
0
0
0
0
0
0
0
0
0
0
0
0
0
-126.26088
0
0
0
0
0
0
-149.85889
0
0
0
0
0
0
0
0
0
0
0
0
-104.08704
0
0
0
0
0
0
-116.7249
0
0
0
0
0
0
0
0
0
0
0
-93.283796
-202.10952
0
0
0
0
0
-194.63312
0
0
0
0
0
0
0
0
0
0
0
0
0
0
0
0
0
0
0
0
0
0
-90.149834
-109.18369
-97.255265
-106.91748
-105.75908
-113.70365
-98.643887
0
-117.72694
-106.72984
-118.33719
-139.57785
-149.36531
-126.7759
-99.936433
-145.25397
-97.553571
-143.2769
-152.13682
-87.760077
-111.86809
0
0
0
0
0
0
0
0
0
0
0
0
0
0
0
-141.86813
0
-154.39912
0
0
-121.92649
0
-119.12876
-139.31064
0
0
-116.54677
0
-117.33677
-138.89137
-164.56642
-146.04894
-147.86952
-134.82007
-120.15372
-102.14002
-140.25848
-139.45996
-90.604271
-146.44963
-88.738814
-104.9887
-123.8606
-111.38102
-140.74038
-182.16852
-143.18266
0
-150.03986
0
0
-97.757299
-119.28389
-125.96861
0
0
-139.32035
-178.86697
0
-142.99234
-144.33741
-152.61297
0
0
0
0
0
0
0
0
0
-144.87413
0
-141.5459
-138.31242
0
0
-65.481543
-67.8957
-101.71249
-125.50178
-113.2957
-62.228136
-70.127426
-69.339284
-131.43238
-77.228741
-129.70335
-75.234564
-123.40202
-72.002247
-146.48741
0
-143.58833
-161.91441
-190.23236
-169.62355
-177.99878
-125.31978
-119.78686
-130.59871
-130.83439
-114.13699
-121.92762
-123.99591
0
-128.48051
-138.59765
-148.51329
-139.4439
-137.25915
-148.10988
-146.98023
-147.5164
-113.71589
-154.51533
-130.01665
-159.70626
-128.39363
-168.80159
-215.3404
-169.85565
-167.17376
-185.09194
-147.6203
-190.41494
-85.144556
-93.926006
0
-94.392061
-102.03641
-95.229669
-102.18377
0
0
0
-91.222244
0
-95.928571
0
-64.051846
-45.254298
-58.672428
-30.029307
-50.274366
-72.117795
-37.376834
-65.144814
-75.853436
-61.996518
-52.561952
-66.602732
-50.55533
-76.068885
-65.548143
-57.115405
-52.70189
-36.739193
-47.98916
-56.387006
-67.308427
-80.588484
-103.91267
-71.196116
-59.357149
-57.89978
-101.27699
-81.564738
-82.312696
-67.215786
-72.137065
-108.77602
-60.603997
-86.40201
-102.16979
-65.052427
-34.857786
-47.599848
-56.291008
-45.867817
-55.906762
-66.120545
0
0
0
0
0
0
0
0
0
0
0
0
0
0
0
0
0
0
0
0
0
0
0
0
0
0
0
0
0
0
0
0
0
0
0
-41.012778
-48.889307
-24.605318
-27.88657
-42.098806
-48.029933
-23.477082
-31.963647
-24.770408
-16.879098
-18.706303
-25.267779
-18.486397
-31.650983
-40.782121
-27.159037
-48.070921
-22.986233
-47.771321
-22.888839
-40.599318
0
0
0
-121.07651
0
0
-138.76863
-120.27242
-106.56455
-117.65321
-120.52269
-109.88752
-120.11316
-110.58354
0
0
0
-108.26749
0
-100.02569
0
-97.246954
-62.074357
-68.695007
-66.714403
-82.065912
-80.989063
-82.527874
-124.95401
-150.37841
-104.14825
-125.62556
-123.70349
-106.32031
-148.55178
-120.80078
-107.50778
-82.320095
-124.82275
-101.73431
-99.902017
-146.32096
0
0
0
0
0
0
0
0
0
0
0
-111.46483
0
0
0
0
0
0
0
0
0
-96.100503
0
-184.30023
0
-138.02547
0
-140.65313
0
0
-109.39609
0
-107.92084
0
0
-121.57229
-159.35054
-200.13691
-177.47914
-157.19563
-177.39339
-116.72266
0
0
0
0
0
0
0
0
0
0
0
0
0
0
0
0
-132.08118
0
0
0
0
0
-120.65059
-140.50367
0
0
0
-123.15158
-200.47471
-195.8649
-205.81745
-188.61817
-195.01946
-212.219
-209.40807
-174.44892
-158.88014
-176.90773
-187.46649
-187.29004
-152.30443
-178.7049
-203.07428
-198.65196
-232.75035
-227.282
-224.9711
-199.6738
-203.32741
-173.43356
-197.7403
-175.7162
-166.45603
-187.09681
-151.79931
-187.00214
-201.97433
-183.94841
-195.64239
-204.3813
-197.41567
-209.04217
-202.41847
0
0
0
0
0
0
0
0
0
0
0
0
0
0
0
0
0
-182.63234
-156.98718
-147.411
-177.63837
-131.74998
0
0
-179.14074
-172.93202
-176.87186
-163.76208
0
0
0
-169.41211
0
-130.76641
0
-204.08058
-129.13079
-190.01856
-196.61539
-169.42393
-165.12959
-214.34646
-200.07748
-179.17966
-164.47154
-175.03536
-188.80474
-186.66246
-194.95485
-204.26063
-199.80663
-203.0926
-181.90418
-197.29713
-194.29879
-198.15796
-213.61317
-198.70707
-208.90315
-204.18315
-186.47461
-211.69994
-208.02698
0
0
0
0
0
0
0
-172.44206
-199.64
-129.44339
-188.02031
-159.43442
-208.01235
-147.03791
-111.23902
-48.611667
-112.67184
0
-109.53538
-115.12231
0
-183.44669
-160.59467
-209.54694
-199.86693
-207.20307
-171.07953
-167.08014
-102.97428
0
0
0
0
0
0
-183.71757
-204.66677
-175.17485
-207.0425
-180.4313
-206.37813
-172.68243
-105.87478
0
0
0
-97.881523
0
0
-169.53609
-175.56837
-182.65329
0
-200.94467
-139.80467
-148.39025
0
0
0
0
0
0
0
0
0
0
0
0
0
0
0
0
-138.41923
0
0
0
0
0
0
-105.38666
0
0
0
0
0
-160.73512
-180.80372
-161.30884
-106.48466
-129.18247
-132.59892
-196.77968
-95.291909
-177.90567
-98.184962
-99.929771
-195.72018
-189.11922
-161.09836
-130.08301
-78.50506
-90.783454
-89.49826
-162.29152
-127.04231
-192.96717
-193.8674
-222.32387
-195.35196
-191.68558
-195.16624
-206.89933
-161.83632
-91.072012
-77.247069
-136.14387
-90.304989
-128.34348
-168.43747
-193.53404
-209.74553
-199.83909
-227.57217
-197.06584
-193.01716
-214.04218
-196.91767
-93.782925
-93.981502
-172.74713
-98.051965
-191.9627
-184.25042
0
0
0
0
0
0
0
0
0
0
-147.16097
-165.57706
-174.876
-120.14923
0
0
0
-141.09462
0
-141.47704
0
0
0
0
0
0
0
0
-160.59661
0
-87.083841
-159.02902
-121.17349
-185.31852
0
-196.74004
-180.20013
-151.77041
-177.54836
-175.34798
-201.50418
-177.39012
-173.00629
-102.36381
-91.150417
-148.43698
-162.23162
-172.81761
0
-183.56379
-214.50448
-198.04294
-204.49525
-207.34953
-165.17658
-191.18769
-135.595
-163.37249
0
0
-116.67553
-180.62317
0
-108.30233
0
-111.68864
0
-114.99382
0
-97.611056
-158.83812
-154.98307
-216.37752
-188.52961
-139.21892
-165.3887
-213.21454
0
0
0
0
0
0
0
-166.01334
-204.18115
-166.13289
-215.52721
-167.80264
-152.56849
-220.59171
0
0
0
0
0
0
0
-126.14427
0
-142.55598
0
0
-166.18427
0
0
0
0
0
0
0
0
-112.7005
0
0
0
0
-96.030409
0
-150.77639
-159.07202
-157.81534
-178.77957
-159.96997
-138.97548
-164.72992
-107.26067
-85.392123
-79.938916
-79.068376
-95.263814
-91.940435
-93.83692
-108.48349
-119.63503
0
0
0
-102.13292
-126.29473
-134.39439
-141.58302
-144.81049
-102.66846
-146.56857
-121.03412
-116.33819
-93.550802
0
-70.936875
0
-79.451943
0
-84.709537
-128.20071
0
0
0
0
0
-136.06314
0
0
-114.53825
0
0
0
0
0
0
0
-135.32262
0
0
0
-74.749296
0
0
0
-83.368924
0
0
-67.842848
-46.818744
-69.398141
-66.314874
-58.876668
-80.309145
-54.140213
-88.957131
-74.644085
-139.29443
-141.96617
-82.759678
-78.277251
-154.50592
-49.702951
-33.39972
0
0
0
0
-40.778685
-91.733871
-146.71556
-86.959331
-138.43933
-80.103666
-100.16403
-148.98502
-58.339143
0
-59.243535
0
-69.242987
0
-48.53321
-70.197108
0
0
0
0
0
0
0
0
0
0
0
0
0
-100.28421
-115.13167
-73.83877
0
0
-121.18659
-90.929694
-85.036849
-79.397742
-65.027236
-71.030938
-79.403723
-84.759366
-68.819694
-96.227055
-117.22457
0
0
-116.60438
-97.691992
0
-80.480921
0
-56.971491
-58.908392
0
-72.661653
-62.060974
-78.332625
0
-66.045664
0
-78.897217
-63.277569
0
0
0
0
0
0
0
0
0
0
0
0
0
0
0
-42.713309
-44.078686
-51.713812
-58.930334
-41.834413
-48.615627
-53.827822
-23.411501
-22.770127
-17.481178
0
-17.490103
-29.317418
0
0
0
0
0
0
-35.71941
0
-34.80956
0
-48.328176
-22.601055
-38.923854
-47.672312
0
-38.583791
0
-54.159881
0
-44.351998
-49.479087
0
-179.85977
-180.57418
-184.54513
-187.05878
-158.93685
-190.17104
-180.69686
-178.58467
-198.25955
-222.23206
-169.94077
-177.76945
-203.33973
-172.83381
-158.69486
-137.3705
0
0
-153.5601
-144.40038
0
-173.00922
0
-177.85171
-192.89615
0
-201.29242
-154.08513
0
0
0
0
0
-146.62869
0
0
0
0
0
0
0
0
0
-141.68167
-182.689
-140.58583
0
-140.30218
0
0
0
-152.89608
0
-109.36784
0
0
0
0
0
0
0
0
0
0
0
0
0
0
0
0
0
0
0
0
0
0
0
0
0
0
0
0
0
0
0
0
0
0
0
0
0
0
0
0
0
0
0
0
0
0
0
0
0
0
0
0
0
0
0
0
0
0
0
0
0
0
0
0
0
0
0
0
0
0
0
0
0
0
0
0
0
0
0
0
0
0
0
0
0
0
0
0
0
0
0
0
0
0
0
0
0
0
0
0
0
0
0
0
0
0
0
0
0
0
0
0
0
0
0
0
0
0
0
0
0
0
0
0
0
0
0
0
0
0
0
0
-20.841812
-18.591715
-24.251596
-15.505775
-19.329248
-13.073659
-16.815369
-35.037105
-22.677738
-30.171196
-28.533523
-37.992822
-28.074643
-21.609899
0
0
0
0
0
0
0
0
0
-144.42018
-174.11115
-147.70008
-167.14421
-145.75885
-168.3628
-155.96574
0
0
0
0
0
0
0
0
0
0
0
0
0
0
0
0
0
-16.692339
0
0
-12.069417
0
0
0
0
0
0
0
0
0
0
0
0
0
0
0
0
0
-67.088334
-73.026411
0
-56.99239
-72.275026
-57.531287
0
0
0
0
0
0
0
0
-141.30504
0
0
-156.80056
-140.21077
-137.93607
0
-194.39416
-170.23115
-162.79539
-183.09347
-177.06808
-156.29069
-129.35121
-133.66553
0
0
0
0
0
0
0
-137.64407
-164.74764
0
0
0
0
0
0
0
0
0
0
0
-135.43567
-147.25439
0
0
0
0
0
0
0
0
0
0
0
0
0
0
0
0
0
0
0
0
0
0
0
0
0
0
0
0
0
0
0
0
0
0
0
0
0
0
0
0
0
0
0
0
0
0
0
0
0
0
0
0
0
0
0
0
0
0
0
0
0
0
-202.2351
-215.47131
-201.27931
-234.33445
-207.36104
-219.11545
-200.31034
)


2246
(
0
0
0
0
0
0
0
0
0
0
0
0
0
0
0
0
0
0
0
0
0
0
0
0
0
0
0
0
0
0
0
0
0
0
0
0
0
0
0
0
0
0
0
0
0
0
0
0
0
0
0
0
0
0
0
0
0
0
0
0
0
0
0
0
0
0
0
0
0
-82.458899
0
-31.805382
-116.48186
-81.555864
-22.653347
-116.4256
0
0
0
0
0
0
0
0
0
0
0
0
0
0
0
0
0
0
0
0
-123.7315
0
-97.78552
0
0
0
0
0
0
0
0
0
0
-108.889
0
-100.46517
0
0
0
0
0
0
0
0
0
-90.309068
0
-22.121473
0
-89.78227
-20.597565
-109.24661
0
0
0
0
0
0
0
0
0
0
0
0
0
0
0
0
0
0
0
0
0
0
0
0
0
0
0
0
0
0
0
0
0
0
0
0
0
0
0
0
0
0
0
0
0
0
0
0
0
0
0
0
0
0
0
0
0
0
0
0
0
0
0
0
0
0
-144.07331
0
-111.62406
0
0
-144.96867
-126.80296
0
0
0
0
-101.32077
0
-115.44677
0
-135.25042
0
-104.63815
0
0
0
0
0
0
0
0
0
0
0
0
0
0
-100.4291
0
0
-96.718208
0
0
-16.641348
0
0
0
0
0
-18.24243
0
0
0
0
0
0
0
0
-108.6122
0
0
0
0
0
0
0
0
0
0
0
0
-109.56618
0
0
0
0
0
0
0
0
0
0
0
0
0
0
0
0
0
0
0
0
0
0
0
0
0
0
0
0
0
0
0
0
0
0
0
0
0
0
0
0
0
0
0
0
0
0
-84.099536
0
-115.77666
-97.688048
0
0
0
-103.05826
0
0
-135.30626
-112.43025
-134.65858
-55.659751
-94.903785
-71.943401
-134.5312
-102.64232
-128.73697
0
-71.680321
0
-127.14394
0
0
-93.95923
0
-87.904027
-40.982148
-66.745953
-56.535777
-94.442794
0
-96.805129
0
-136.62234
-131.9653
-104.6911
-172.29156
-80.508924
0
-56.231266
-73.857258
-48.074109
-46.643946
-53.506391
-89.248399
-62.271889
-61.305353
-29.200012
0
0
0
0
0
0
0
-41.712686
-36.466028
-11.703108
-47.310866
-24.629817
0
-89.96129
0
-60.075962
-123.81533
-101.41148
-73.404136
0
0
0
0
0
-123.39253
0
-165.57956
0
0
0
0
-87.456377
0
-131.83392
0
-156.797
-139.47396
-128.93309
-179.32203
-159.53793
-196.52306
-152.6357
0
0
0
0
0
0
0
0
0
0
-138.82269
-141.63222
-164.73172
-188.73219
0
0
0
0
0
0
0
-149.02459
0
-179.36675
0
-180.35363
0
-136.51105
0
0
0
0
0
0
0
0
0
0
0
0
0
0
0
0
0
0
0
-163.31908
0
-88.122645
-57.238415
-132.43231
-183.62363
-67.464257
-189.03152
0
0
0
0
0
0
0
0
0
0
0
0
0
0
0
0
0
0
-142.91766
-73.59246
-192.38512
0
0
-172.67966
0
-184.1023
0
0
0
0
0
0
0
0
0
0
0
0
0
0
0
0
0
-141.80028
-48.448567
0
-95.250628
0
0
0
0
-73.837925
0
-107.16262
0
0
0
-39.151143
-71.550998
0
-88.58889
0
0
0
0
0
0
0
0
0
0
0
-48.396172
-47.722888
0
-29.094766
0
0
0
0
0
0
0
-38.606098
0
0
-22.488099
0
0
0
0
0
0
0
0
0
0
0
-144.882
-188.34011
0
-135.48975
0
0
0
-173.72564
0
0
0
0
0
0
0
0
0
0
0
0
0
0
0
0
0
0
0
0
0
0
0
0
0
0
0
0
0
0
0
0
0
0
0
0
0
0
0
0
0
0
0
0
0
0
0
0
0
0
0
0
0
0
0
0
0
0
0
0
0
0
0
0
0
0
0
0
0
0
0
0
0
0
0
0
0
0
0
-112.78761
-118.48363
-122.57801
-149.62892
-146.30216
-145.26964
-151.51088
-28.90484
-25.003551
-26.581533
-21.78256
-29.531253
-24.000943
-26.253725
-111.14757
-114.56328
-109.98085
-151.06176
-146.55459
-147.98885
-145.31415
-92.694588
-96.144376
-94.096205
-171.35104
-150.10688
-153.3503
-163.11468
-94.290273
0
-96.229348
0
-93.562132
0
-93.822322
-137.486
-109.02692
-110.51798
-136.07453
-134.50114
-109.47213
-137.29498
0
0
0
-139.7448
-152.05055
-151.49849
-156.86629
-93.300035
0
-91.896066
0
0
-94.256616
0
0
0
0
0
0
0
0
0
0
0
0
0
0
0
-81.798028
-94.142377
-72.633906
-89.70013
-74.613609
-72.819732
-102.26326
-32.77785
-26.786931
-30.226015
-20.321268
-28.180338
-34.649795
-25.295188
0
0
0
0
0
0
0
0
0
-70.829982
-88.056462
-71.715582
-88.442971
-89.005021
-71.116811
-71.034907
-21.573105
-25.122726
-19.548829
-19.970543
-16.82786
-24.190087
-25.215036
-137.41293
-115.36485
-135.96485
-109.13402
-129.47084
-141.22967
-123.12134
0
0
0
0
0
0
0
0
0
0
0
0
0
0
0
0
0
0
0
-153.41266
-123.91974
-153.06066
-158.20349
-130.53498
-169.88816
-141.95169
-129.34583
0
-133.89914
-119.19481
-90.747207
0
-151.11549
0
0
0
0
0
0
0
-131.69757
-148.15963
0
-142.92177
-101.62418
-119.02248
-151.86554
-159.28412
-153.04385
-122.044
-100.20852
-95.401895
-163.03868
-136.4396
0
0
0
-9.6644462
-7.058911
0
0
0
0
0
0
0
0
0
0
0
0
0
0
0
0
0
0
0
0
0
0
0
0
-122.45829
0
-111.21902
0
-130.13599
0
0
0
-132.30025
-122.88943
0
0
-128.95969
0
-130.87275
0
-137.91003
-75.38002
0
-130.93327
0
-120.10186
-118.75781
0
0
-129.12462
0
0
0
0
0
0
0
0
0
0
0
0
0
0
0
0
0
0
0
0
0
0
0
0
-92.075718
0
0
0
0
0
0
-88.964723
0
0
0
0
0
0
0
0
0
0
0
0
-56.762234
0
0
0
0
0
0
-117.20512
0
0
0
0
0
0
0
0
0
0
0
-56.688149
-194.21387
0
0
0
0
0
-173.60031
0
0
0
0
0
0
0
0
0
0
0
0
0
0
0
0
0
0
0
0
0
0
-83.959042
-86.707791
-84.762179
-126.15052
-141.20766
-146.75433
-122.61571
0
-90.563101
-86.452747
-131.75061
-156.53459
-127.80781
-155.64881
-126.35175
-138.38385
-101.39576
-109.37816
-128.06611
-95.060186
-133.8808
0
0
0
0
0
0
0
0
0
0
0
0
0
0
0
-91.43108
0
-115.40742
0
0
-98.592011
0
-123.85948
-128.85857
0
0
-118.37314
0
-97.440668
-101.9027
-138.30913
-127.909
-133.10404
-107.63638
-93.289692
-89.133075
-110.4439
-115.20244
-74.840071
-121.39283
-79.519229
-83.972923
-99.482078
-96.113267
-126.31273
-145.26909
-119.32031
0
-130.05551
0
0
-77.056262
-89.657081
-98.643813
0
0
-96.404228
-141.86269
0
-116.72398
-119.25194
-124.46563
0
0
0
0
0
0
0
0
0
-93.292869
0
-108.65154
-104.69104
0
0
-55.321181
-45.600625
-71.21827
-73.192799
-76.344236
-48.86407
-51.912454
-63.468573
-100.26923
-66.8341
-83.576608
-71.932661
-89.384263
-57.812239
-108.81841
0
-125.21995
-156.75675
-145.33263
-162.07577
-154.57328
-110.98851
-100.86054
-113.58639
-155.53525
-162.02437
-164.75575
-157.3395
0
-103.30066
-115.29733
-157.31274
-168.48424
-169.32947
-159.95165
-146.63546
-158.57887
-114.3849
-151.87485
-141.38113
-163.68753
-126.36624
-160.43028
-175.64919
-162.13698
-157.33102
-178.06568
-141.21508
-177.76434
-82.512177
-76.633289
0
-110.29673
-135.54913
-118.2312
-130.49711
0
0
0
-89.589392
0
-106.98094
0
-92.588338
-75.663526
-71.826362
-48.308269
-63.670079
-103.08285
-66.716338
-108.52677
-117.61595
-76.993941
-71.254807
-110.60938
-72.17425
-117.64344
-61.895218
-63.50069
-50.355973
-37.956165
-42.529286
-50.456553
-75.539154
-68.402271
-84.326002
-48.357081
-41.563419
-41.697432
-87.135439
-65.909263
-78.356808
-55.59061
-54.720196
-110.6499
-46.226396
-93.242604
-97.576691
-56.000161
-32.656912
-35.741317
-40.535616
-38.534151
-45.035018
-52.498028
0
0
0
0
0
0
0
0
0
0
0
0
0
0
0
0
0
0
0
0
0
0
0
0
0
0
0
0
0
0
0
0
0
0
0
-36.236123
-52.798694
-34.939756
-32.830733
-44.039719
-41.353353
-27.367521
-25.892167
-20.93644
-13.755717
-14.948349
-22.9401
-16.644496
-24.274127
-30.9992
-28.255852
-33.895856
-18.668556
-36.493047
-21.94453
-28.628235
0
0
0
-154.89961
0
0
-146.0841
-106.20306
-83.09408
-100.54293
-157.62514
-160.47513
-161.00671
-151.09516
0
0
0
-146.19431
0
-130.03302
0
-123.60013
-78.476247
-79.670883
-62.457312
-112.62584
-96.314944
-78.75123
-134.92945
-149.22946
-104.59065
-128.12642
-129.68848
-109.80006
-150.76237
-141.7505
-81.042981
-69.486952
-138.26671
-117.76244
-80.54069
-158.45801
0
0
0
0
0
0
0
0
0
0
0
-101.62976
0
0
0
0
0
0
0
0
0
-89.958327
0
-151.65093
0
-124.90116
0
-119.82464
0
0
-87.543695
0
-86.426679
0
0
-115.86246
-145.16759
-167.08846
-136.35889
-149.19519
-140.60229
-119.23245
0
0
0
0
0
0
0
0
0
0
0
0
0
0
0
0
-111.9026
0
0
0
0
0
-121.87785
-132.31726
0
0
0
-113.16616
-175.26325
-171.95121
-184.51193
-167.72651
-165.24864
-187.49815
-196.51969
-140.37809
-114.67013
-145.13987
-148.04096
-150.4969
-121.21495
-135.08542
-162.69687
-165.89669
-179.76129
-178.46636
-185.93033
-161.88607
-163.14096
-149.59731
-161.87152
-153.07068
-151.88457
-153.76197
-131.85577
-167.67816
-167.87714
-180.4676
-150.75351
-174.62307
-160.67896
-194.49638
-160.38103
0
0
0
0
0
0
0
0
0
0
0
0
0
0
0
0
0
-169.56652
-136.65084
-138.1653
-173.24922
-94.980305
0
0
-168.04152
-139.43841
-155.54051
-133.28977
0
0
0
-140.54133
0
-109.08267
0
-170.44806
-110.74793
-160.80472
-168.86007
-144.61166
-135.89498
-192.56699
-181.42958
-165.58636
-152.40842
-159.15492
-170.63491
-166.67043
-176.56686
-184.51245
-163.58335
-168.80912
-168.51747
-177.58931
-163.07908
-180.84042
-187.67218
-168.63071
-181.94721
-179.12991
-166.29366
-185.59664
-189.16162
0
0
0
0
0
0
0
-147.30767
-170.44784
-126.27609
-156.60539
-149.24558
-175.5435
-145.46748
-100.20276
-50.707947
-99.787298
0
-101.73247
-95.458375
0
-146.59682
-156.76196
-189.49478
-186.5217
-192.99493
-149.78138
-150.78084
-93.935404
0
0
0
0
0
0
-146.63451
-179.76734
-148.04097
-187.93931
-156.05816
-182.23809
-145.63192
-99.123173
0
0
0
-92.015032
0
0
-142.60802
-162.47961
-174.01805
0
-185.50742
-133.5494
-128.63318
0
0
0
0
0
0
0
0
0
0
0
0
0
0
0
0
-111.66507
0
0
0
0
0
0
-82.143123
0
0
0
0
0
-135.35974
-158.96828
-124.67992
-104.06905
-119.50956
-113.79302
-147.77447
-91.533883
-142.38567
-106.32451
-92.368203
-150.97144
-152.24058
-127.6407
-106.94558
-57.875379
-66.923773
-68.157047
-125.60136
-109.21489
-167.21027
-165.92324
-179.05239
-184.10103
-162.53521
-165.72623
-184.13767
-131.97717
-78.05247
-61.703558
-129.08485
-74.390686
-118.21
-140.82527
-167.06112
-179.82847
-169.50041
-182.40081
-163.24117
-170.10284
-179.34022
-146.79328
-104.3283
-79.864662
-148.43337
-86.626622
-142.28967
-163.24482
0
0
0
0
0
0
0
0
0
0
-125.68895
-128.95408
-163.51088
-101.79748
0
0
0
-115.49313
0
-135.34564
0
0
0
0
0
0
0
0
-120.24341
0
-78.791364
-127.50283
-98.697856
-141.21266
0
-170.73379
-171.13001
-146.98482
-159.46014
-169.62422
-176.33522
-166.10441
-151.79466
-72.762692
-76.423431
-146.08393
-159.61363
-149.19733
0
-158.58779
-167.4909
-177.45881
-175.43903
-179.40394
-151.74969
-170.5775
-121.63904
-135.40872
0
0
-109.89742
-141.40426
0
-91.198917
0
-93.57609
0
-92.789052
0
-86.557364
-160.58836
-149.43816
-181.33991
-161.24547
-126.45919
-154.42502
-179.1366
0
0
0
0
0
0
0
-152.31151
-186.97416
-144.60788
-191.84814
-147.69931
-143.0432
-181.74756
0
0
0
0
0
0
0
-119.11096
0
-126.43484
0
0
-144.70293
0
0
0
0
0
0
0
0
-83.540137
0
0
0
0
-71.556804
0
-104.41404
-109.00875
-127.29673
-149.75615
-134.07708
-93.950414
-122.24066
-64.85966
-59.235701
-48.83542
-46.601236
-58.341388
-50.148167
-59.178119
-71.789578
-73.753779
0
0
0
-63.14982
-84.055362
-88.357831
-92.589544
-108.66006
-72.584793
-111.96217
-80.179472
-73.697217
-64.081869
0
-43.015953
0
-50.859536
0
-55.191233
-89.208684
0
0
0
0
0
-96.583815
0
0
-94.223357
0
0
0
0
0
0
0
-110.84423
0
0
0
-45.411195
0
0
0
-55.915913
0
0
-37.039392
-32.745896
-42.465979
-37.891956
-38.701988
-41.59999
-31.429448
-47.665891
-43.366677
-79.101187
-95.810927
-43.740673
-49.668986
-94.530961
-25.970913
-15.918298
0
0
0
0
-20.06986
-53.839596
-84.574958
-64.021643
-83.104836
-56.000541
-60.697391
-86.914536
-32.035266
0
-33.579204
0
-40.427671
0
-25.208183
-36.3696
0
0
0
0
0
0
0
0
0
0
0
0
0
-70.363693
-83.654582
-41.701945
0
0
-92.649756
-64.697088
-55.890756
-59.368368
-47.054148
-44.749525
-59.039037
-56.751512
-44.078422
-61.645164
-72.794705
0
0
-74.057886
-61.188211
0
-51.49179
0
-34.368895
-39.917119
0
-50.844504
-38.662166
-49.719991
0
-38.894921
0
-51.083179
-37.633893
0
0
0
0
0
0
0
0
0
0
0
0
0
0
0
-27.149868
-31.40228
-37.958303
-37.318315
-30.183311
-31.460408
-34.906786
-16.055218
-18.655138
-12.874748
0
-11.339191
-21.645067
0
0
0
0
0
0
-19.436932
0
-21.366725
0
-32.115032
-16.428501
-25.507265
-28.605913
0
-20.272174
0
-29.839884
0
-23.056466
-27.136587
0
-143.26029
-125.82816
-149.97317
-151.17343
-134.32966
-146.32488
-140.2999
-145.49924
-166.09236
-179.45169
-146.91384
-144.60789
-168.28954
-141.00647
-120.70737
-93.2709
0
0
-116.70792
-102.11556
0
-143.43135
0
-148.46376
-166.33655
0
-168.23959
-123.07025
0
0
0
0
0
-109.57226
0
0
0
0
0
0
0
0
0
-135.29239
-168.13314
-115.17486
0
-129.88514
0
0
0
-144.96531
0
-101.23327
0
0
0
0
0
0
0
0
0
0
0
0
0
0
0
0
0
0
0
0
0
0
0
0
0
0
0
0
0
0
0
0
0
0
0
0
0
0
0
0
0
0
0
0
0
0
0
0
0
0
0
0
0
0
0
0
0
0
0
0
0
0
0
0
0
0
0
0
0
0
0
0
0
0
0
0
0
0
0
0
0
0
0
0
0
0
0
0
0
0
0
0
0
0
0
0
0
0
0
0
0
0
0
0
0
0
0
0
0
0
0
0
0
0
0
0
0
0
0
0
0
0
0
0
0
0
0
0
0
0
0
0
-15.372615
-13.370655
-15.202081
-11.763439
-13.104051
-9.6103176
-11.084025
-26.290995
-15.448776
-15.756161
-22.186215
-23.199466
-18.284075
-12.519677
0
0
0
0
0
0
0
0
0
-108.90644
-133.78925
-109.2504
-129.33667
-110.27252
-128.22627
-126.38189
0
0
0
0
0
0
0
0
0
0
0
0
0
0
0
0
0
-14.262264
0
0
-10.134337
0
0
0
0
0
0
0
0
0
0
0
0
0
0
0
0
0
-37.551235
-41.789102
0
-30.55018
-39.121545
-30.613349
0
0
0
0
0
0
0
0
-107.37417
0
0
-124.56357
-114.76205
-128.45409
0
-164.97145
-163.36413
-145.32663
-150.65957
-144.21667
-128.59371
-117.25424
-89.614323
0
0
0
0
0
0
0
-120.78127
-127.52685
0
0
0
0
0
0
0
0
0
0
0
-124.56749
-147.93002
0
0
0
0
0
0
0
0
0
0
0
0
0
0
0
0
0
0
0
0
0
0
0
0
0
0
0
0
0
0
0
0
0
0
0
0
0
0
0
0
0
0
0
0
0
0
0
0
0
0
0
0
0
0
0
0
0
0
0
0
0
0
-166.75693
-194.62988
-171.46473
-186.68173
-177.29084
-193.80291
-162.3822
)


2246
(
0
0
0
0
0
0
0
0
0
0
0
0
0
0
0
0
0
0
0
0
0
0
0
0
0
0
0
0
0
0
0
0
0
0
0
0
0
0
0
0
0
0
0
0
0
0
0
0
0
0
0
0
0
0
0
0
0
0
0
0
0
0
0
0
0
0
0
0
0
-78.656835
0
-37.542767
-98.115082
-72.6942
-28.065062
-95.369875
0
0
0
0
0
0
0
0
0
0
0
0
0
0
0
0
0
0
0
0
-114.51386
0
-107.35227
0
0
0
0
0
0
0
0
0
0
-98.535538
0
-106.35788
0
0
0
0
0
0
0
0
0
-77.234785
0
-24.459066
0
-77.040838
-21.966409
-97.047061
0
0
0
0
0
0
0
0
0
0
0
0
0
0
0
0
0
0
0
0
0
0
0
0
0
0
0
0
0
0
0
0
0
0
0
0
0
0
0
0
0
0
0
0
0
0
0
0
0
0
0
0
0
0
0
0
0
0
0
0
0
0
0
0
0
0
-135.37945
0
-104.33978
0
0
-146.98597
-128.1048
0
0
0
0
-116.06046
0
-97.788237
0
-139.56136
0
-118.17776
0
0
0
0
0
0
0
0
0
0
0
0
0
0
-81.634408
0
0
-96.374103
0
0
-19.126761
0
0
0
0
0
-21.018337
0
0
0
0
0
0
0
0
-93.502329
0
0
0
0
0
0
0
0
0
0
0
0
-98.122663
0
0
0
0
0
0
0
0
0
0
0
0
0
0
0
0
0
0
0
0
0
0
0
0
0
0
0
0
0
0
0
0
0
0
0
0
0
0
0
0
0
0
0
0
0
0
-91.514757
0
-137.63207
-142.70658
0
0
0
-98.0879
0
0
-138.02988
-117.00661
-123.1787
-58.136487
-106.02854
-85.499347
-141.73646
-91.432914
-115.4699
0
-78.0748
0
-116.44491
0
0
-97.826919
0
-91.306228
-46.365511
-59.855049
-70.151
-83.400601
0
-101.53808
0
-142.2306
-162.28469
-139.45048
-172.5161
-88.837484
0
-71.019539
-119.38185
-51.857137
-42.857931
-53.928061
-104.46891
-83.68649
-67.62595
-31.894118
0
0
0
0
0
0
0
-49.646918
-41.815372
-18.776724
-67.273603
-29.393818
0
-95.801656
0
-68.574491
-152.1043
-138.7407
-77.162513
0
0
0
0
0
-123.08772
0
-181.98775
0
0
0
0
-90.691145
0
-137.4312
0
-161.28715
-129.2641
-132.64603
-183.85698
-167.62499
-194.85296
-154.81347
0
0
0
0
0
0
0
0
0
0
-139.91658
-164.12335
-174.38619
-188.10781
0
0
0
0
0
0
0
-149.22726
0
-184.54307
0
-180.38287
0
-152.61819
0
0
0
0
0
0
0
0
0
0
0
0
0
0
0
0
0
0
0
-172.02969
0
-68.849223
-51.333494
-135.86489
-187.46011
-75.484849
-196.64356
0
0
0
0
0
0
0
0
0
0
0
0
0
0
0
0
0
0
-166.34824
-83.475393
-188.88232
0
0
-184.82707
0
-181.0063
0
0
0
0
0
0
0
0
0
0
0
0
0
0
0
0
0
-115.60567
-42.890281
0
-80.953597
0
0
0
0
-63.397832
0
-93.0174
0
0
0
-35.620492
-51.282536
0
-72.018857
0
0
0
0
0
0
0
0
0
0
0
-38.987705
-40.442811
0
-26.559196
0
0
0
0
0
0
0
-32.637575
0
0
-23.396507
0
0
0
0
0
0
0
0
0
0
0
-132.2841
-178.3852
0
-136.79307
0
0
0
-167.03558
0
0
0
0
0
0
0
0
0
0
0
0
0
0
0
0
0
0
0
0
0
0
0
0
0
0
0
0
0
0
0
0
0
0
0
0
0
0
0
0
0
0
0
0
0
0
0
0
0
0
0
0
0
0
0
0
0
0
0
0
0
0
0
0
0
0
0
0
0
0
0
0
0
0
0
0
0
0
0
-101.59318
-101.48494
-100.26165
-158.25955
-165.99325
-158.00321
-170.99248
-40.845688
-37.125705
-31.334119
-28.267572
-40.630564
-36.493093
-32.242953
-92.674965
-102.65963
-102.81097
-161.05753
-161.81542
-158.34826
-159.51252
-105.85392
-107.01929
-102.75502
-161.32013
-194.93334
-189.88666
-168.72433
-103.57478
0
-104.04456
0
-102.39916
0
-104.29736
-131.90838
-99.735979
-102.66537
-123.53429
-122.16388
-105.62891
-128.23579
0
0
0
-170.18074
-187.3767
-174.03874
-176.044
-93.783764
0
-98.682838
0
0
-100.14345
0
0
0
0
0
0
0
0
0
0
0
0
0
0
0
-59.040319
-77.452414
-61.706487
-73.094356
-62.948759
-58.583831
-75.430084
-27.905478
-28.154193
-28.975552
-20.101507
-24.436028
-33.129304
-23.3124
0
0
0
0
0
0
0
0
0
-58.83824
-75.359274
-61.973687
-74.366341
-75.079287
-61.539444
-59.078573
-17.490712
-25.130059
-21.325122
-17.867473
-14.91296
-24.327909
-20.413343
-118.24798
-97.835896
-120.41137
-93.798812
-116.45669
-123.00384
-96.958821
0
0
0
0
0
0
0
0
0
0
0
0
0
0
0
0
0
0
0
-157.61069
-110.79467
-144.89041
-164.27229
-120.68865
-165.64696
-160.72303
-148.79199
0
-132.70767
-116.68346
-95.907862
0
-157.25674
0
0
0
0
0
0
0
-134.01448
-152.66426
0
-145.12349
-103.1915
-117.30974
-151.90964
-159.27819
-146.99602
-125.46736
-114.99053
-111.49227
-156.15366
-139.46364
0
0
0
-5.1772558
-0.20392364
0
0
0
0
0
0
0
0
0
0
0
0
0
0
0
0
0
0
0
0
0
0
0
0
-134.58986
0
-135.71303
0
-139.79411
0
0
0
-124.06456
-110.62863
0
0
-124.5628
0
-139.69256
0
-140.7967
-72.014125
0
-135.79621
0
-131.68783
-119.13799
0
0
-129.73447
0
0
0
0
0
0
0
0
0
0
0
0
0
0
0
0
0
0
0
0
0
0
0
0
-78.608491
0
0
0
0
0
0
-89.998722
0
0
0
0
0
0
0
0
0
0
0
0
-41.625277
0
0
0
0
0
0
-105.16958
0
0
0
0
0
0
0
0
0
0
0
-47.051859
-181.6216
0
0
0
0
0
-171.79598
0
0
0
0
0
0
0
0
0
0
0
0
0
0
0
0
0
0
0
0
0
0
-93.939632
-94.357976
-95.696835
-154.09869
-160.9672
-162.69284
-150.10002
0
-97.586058
-97.339856
-157.47496
-170.7484
-155.25809
-166.06214
-171.33406
-172.29158
-127.33624
-129.90172
-169.20287
-126.64639
-169.33753
0
0
0
0
0
0
0
0
0
0
0
0