/*--------------------------------*- C++ -*----------------------------------*\
  =========                 |
  \\      /  F ield         | OpenFOAM: The Open Source CFD Toolbox
   \\    /   O peration     | Website:  https://openfoam.org
    \\  /    A nd           | Version:  8
     \\/     M anipulation  |
\*---------------------------------------------------------------------------*/
/*   Windows 32 and 64 bit porting by blueCAPE: http://www.bluecape.com.pt   *\
|  Based on Windows porting (2.0.x v4) by Symscape: http://www.symscape.com   |
\*---------------------------------------------------------------------------*/
FoamFile
{
    version     2.0;
    format      ascii;
    class       polyBoundaryMesh;
    location    "constant/air/polyMesh";
    object      boundary;
}
// * * * * * * * * * * * * * * * * * * * * * * * * * * * * * * * * * * * * * //

12
(
    left
    {
        type            patch;
        nFaces          0;
        startFace       6812;
    }
    right
    {
        type            patch;
        nFaces          40;
        startFace       6812;
    }
    back
    {
        type            patch;
        nFaces          20;
        startFace       6852;
    }
    front
    {
        type            patch;
        nFaces          0;
        startFace       6872;
    }
    bottom
    {
        type            wall;
        inGroups        List<word> 1(wall);
        nFaces          119;
        startFace       6872;
    }
    top
    {
        type            patch;
        nFaces          54;
        startFace       6991;
    }
    tower
    {
        type            mappedWall;
        inGroups        List<word> 
2
(
wall
mappedPatch
)
;
        nFaces          357;
        startFace       7045;
        sampleMode      nearestPatchFace;
        sampleRegion    tower;
        samplePatch     buildings_to_air;
    }
    procBoundary14to11
    {
        type            processor;
        inGroups        List<word> 1(processor);
        nFaces          189;
        startFace       7402;
        matchTolerance  0.0001;
        myProcNo        14;
        neighbProcNo    11;
    }
    procBoundary14to12
    {
        type            processor;
        inGroups        List<word> 1(processor);
        nFaces          50;
        startFace       7591;
        matchTolerance  0.0001;
        myProcNo        14;
        neighbProcNo    12;
    }
    procBoundary14to13
    {
        type            processor;
        inGroups        List<word> 1(processor);
        nFaces          155;
        startFace       7641;
        matchTolerance  0.0001;
        myProcNo        14;
        neighbProcNo    13;
    }
    procBoundary14to15
    {
        type            processor;
        inGroups        List<word> 1(processor);
        nFaces          61;
        startFace       7796;
        matchTolerance  0.0001;
        myProcNo        14;
        neighbProcNo    15;
    }
    procBoundary14to16
    {
        type            processor;
        inGroups        List<word> 1(processor);
        nFaces          10;
        startFace       7857;
        matchTolerance  0.0001;
        myProcNo        14;
        neighbProcNo    16;
    }
)

// ************************************************************************* //
