/*--------------------------------*- C++ -*----------------------------------*\
  =========                 |
  \\      /  F ield         | OpenFOAM: The Open Source CFD Toolbox
   \\    /   O peration     | Website:  https://openfoam.org
    \\  /    A nd           | Version:  8
     \\/     M anipulation  |
\*---------------------------------------------------------------------------*/
/*   Windows 32 and 64 bit porting by blueCAPE: http://www.bluecape.com.pt   *\
|  Based on Windows porting (2.0.x v4) by Symscape: http://www.symscape.com   |
\*---------------------------------------------------------------------------*/
FoamFile
{
    version     2.0;
    format      ascii;
    class       polyBoundaryMesh;
    location    "constant/air/polyMesh";
    object      boundary;
}
// * * * * * * * * * * * * * * * * * * * * * * * * * * * * * * * * * * * * * //

12
(
    left
    {
        type            patch;
        nFaces          34;
        startFace       6772;
    }
    right
    {
        type            patch;
        nFaces          0;
        startFace       6806;
    }
    back
    {
        type            patch;
        nFaces          6;
        startFace       6806;
    }
    front
    {
        type            patch;
        nFaces          0;
        startFace       6812;
    }
    bottom
    {
        type            wall;
        inGroups        List<word> 1(wall);
        nFaces          0;
        startFace       6812;
    }
    top
    {
        type            patch;
        nFaces          71;
        startFace       6812;
    }
    tower
    {
        type            mappedWall;
        inGroups        List<word> 
2
(
wall
mappedPatch
)
;
        nFaces          447;
        startFace       6883;
        sampleMode      nearestPatchFace;
        sampleRegion    tower;
        samplePatch     buildings_to_air;
    }
    procBoundary4to1
    {
        type            processor;
        inGroups        List<word> 1(processor);
        nFaces          45;
        startFace       7330;
        matchTolerance  0.0001;
        myProcNo        4;
        neighbProcNo    1;
    }
    procBoundary4to2
    {
        type            processor;
        inGroups        List<word> 1(processor);
        nFaces          171;
        startFace       7375;
        matchTolerance  0.0001;
        myProcNo        4;
        neighbProcNo    2;
    }
    procBoundary4to3
    {
        type            processor;
        inGroups        List<word> 1(processor);
        nFaces          203;
        startFace       7546;
        matchTolerance  0.0001;
        myProcNo        4;
        neighbProcNo    3;
    }
    procBoundary4to7
    {
        type            processor;
        inGroups        List<word> 1(processor);
        nFaces          32;
        startFace       7749;
        matchTolerance  0.0001;
        myProcNo        4;
        neighbProcNo    7;
    }
    procBoundary4to8
    {
        type            processor;
        inGroups        List<word> 1(processor);
        nFaces          32;
        startFace       7781;
        matchTolerance  0.0001;
        myProcNo        4;
        neighbProcNo    8;
    }
)

// ************************************************************************* //
