/*--------------------------------*- C++ -*----------------------------------*\
  =========                 |
  \\      /  F ield         | OpenFOAM: The Open Source CFD Toolbox
   \\    /   O peration     | Website:  https://openfoam.org
    \\  /    A nd           | Version:  8
     \\/     M anipulation  |
\*---------------------------------------------------------------------------*/
/*   Windows 32 and 64 bit porting by blueCAPE: http://www.bluecape.com.pt   *\
|  Based on Windows porting (2.0.x v4) by Symscape: http://www.symscape.com   |
\*---------------------------------------------------------------------------*/
FoamFile
{
    version     2.0;
    format      ascii;
    class       polyBoundaryMesh;
    location    "constant/tower/polyMesh";
    object      boundary;
}
// * * * * * * * * * * * * * * * * * * * * * * * * * * * * * * * * * * * * * //

6
(
    buildings_to_air
    {
        type            mappedWall;
        inGroups        List<word> 
2
(
wall
mappedPatch
)
;
        nFaces          1739;
        startFace       41101;
        sampleMode      nearestPatchFace;
        sampleRegion    air;
        samplePatch     tower;
    }
    interior
    {
        type            patch;
        nFaces          1739;
        startFace       42840;
    }
    procBoundary17to15
    {
        type            processor;
        inGroups        List<word> 1(processor);
        nFaces          100;
        startFace       44579;
        matchTolerance  0.0001;
        myProcNo        17;
        neighbProcNo    15;
    }
    procBoundary17to16
    {
        type            processor;
        inGroups        List<word> 1(processor);
        nFaces          410;
        startFace       44679;
        matchTolerance  0.0001;
        myProcNo        17;
        neighbProcNo    16;
    }
    procBoundary17to18
    {
        type            processor;
        inGroups        List<word> 1(processor);
        nFaces          200;
        startFace       45089;
        matchTolerance  0.0001;
        myProcNo        17;
        neighbProcNo    18;
    }
    procBoundary17to19
    {
        type            processor;
        inGroups        List<word> 1(processor);
        nFaces          560;
        startFace       45289;
        matchTolerance  0.0001;
        myProcNo        17;
        neighbProcNo    19;
    }
)

// ************************************************************************* //
