/*--------------------------------*- C++ -*----------------------------------*\
  =========                 |
  \\      /  F ield         | OpenFOAM: The Open Source CFD Toolbox
   \\    /   O peration     | Website:  https://openfoam.org
    \\  /    A nd           | Version:  8
     \\/     M anipulation  |
\*---------------------------------------------------------------------------*/
/*   Windows 32 and 64 bit porting by blueCAPE: http://www.bluecape.com.pt   *\
|  Based on Windows porting (2.0.x v4) by Symscape: http://www.symscape.com   |
\*---------------------------------------------------------------------------*/
FoamFile
{
    version     2.0;
    format      ascii;
    class       scalarListList;
    location    "constant/vegetation";
    object      F;
}
// * * * * * * * * * * * * * * * * * * * * * * * * * * * * * * * * * * * * * //


183
(

3020
(
0.00037155888
0.0011328178
0.0024128687
0.0013193985
0.002430211
0.00099204872
0.0035897513
0.00049710473
0.0011802036
5.7259704e-05
5.1681365e-05
5.8009809e-05
4.872771e-05
5.7391843e-05
5.1938939e-05
5.7615458e-05
4.2555293e-05
4.103124e-05
4.4609745e-05
5.0201996e-05
4.7160907e-05
4.723268e-05
3.84304e-05
4.0734234e-05
3.9513918e-05
6.9370636e-05
4.4896387e-05
4.2233929e-05
4.3994764e-05
4.3379543e-05
3.8417567e-05
5.1317818e-05
7.0821703e-05
3.4529353e-05
4.353422e-05
3.6207809e-05
4.0868674e-05
0.004881665
0.0042647846
3.554071e-05
2.7031272e-05
3.4305839e-05
2.9880452e-05
3.0914422e-05
2.3192014e-05
2.6152803e-05
2.1459823e-05
1.7572498e-05
7.4103934e-08
5.2010891e-07
2.8785392e-06
3.2887579e-06
6.2892122e-08
2.5288212e-05
4.0568274e-08
1.0648609e-07
3.6835766e-05
1.1034942e-07
7.6438867e-08
2.7942249e-05
8.2745716e-08
1.0267187e-07
3.3124457e-05
9.9151641e-08
2.4318997e-05
3.2524489e-08
3.6119171e-08
2.8889599e-05
8.920581e-08
8.6109814e-08
3.199379e-05
9.2434269e-08
9.5660768e-08
9.8764929e-06
3.8891843e-06
4.7189131e-06
3.079101e-06
2.8953082e-06
2.7400249e-06
2.7744745e-06
3.2759868e-06
3.4148063e-06
3.6590779e-06
3.5357946e-06
3.7880656e-06
3.9220605e-06
3.2198605e-05
3.0294504e-05
6.6421453e-06
7.4729826e-06
7.7255594e-06
7.2550097e-06
7.380374e-06
7.5258377e-06
7.1790287e-06
5.9613923e-06
6.3090064e-06
4.7425191e-06
3.4085998e-05
3.7447776e-05
3.1473554e-05
3.4858514e-05
2.7000964e-05
2.929735e-05
8.016408e-06
7.8188188e-06
3.0959023e-05
7.955841e-06
7.7285224e-06
2.4278077e-05
6.1464031e-06
3.7074223e-05
3.4970607e-05
3.7941472e-05
2.886809e-05
4.7062675e-06
4.7910384e-06
6.5379813e-06
7.0218899e-06
6.4271808e-06
6.6762901e-06
5.7023352e-06
6.1927485e-06
6.5977473e-06
7.303165e-06
6.6382346e-06
7.3394698e-06
6.7060098e-06
6.6699958e-06
6.8093119e-06
6.1654249e-06
6.1015668e-06
6.2092604e-06
6.2438036e-06
5.4069682e-06
5.7861166e-06
5.991792e-06
5.3089109e-06
5.5874977e-06
6.9496767e-06
7.1964979e-06
8.0128021e-06
6.2994323e-06
6.2725273e-06
6.3251781e-06
7.5218135e-06
8.8199231e-06
8.480502e-06
7.03223e-06
6.1185582e-06
7.879734e-06
9.1532826e-06
7.87553e-06
8.9210838e-06
9.0115147e-06
7.9165034e-06
9.1256723e-06
9.0563266e-06
0.0022350538
0.0011563014
0.0010464436
0.0046128493
0.0023445056
1.7286385e-05
1.6872551e-05
1.5249193e-05
1.636981e-05
1.7370857e-05
1.6900737e-05
1.1938476e-05
1.777223e-05
1.644148e-05
0.00010319138
8.1403223e-05
0.00021207997
4.0475521e-05
0.0030252642
2.7434785e-05
2.5232136e-05
2.8290672e-05
2.3864214e-05
2.8188954e-05
2.8187782e-05
2.544226e-05
2.8245763e-05
2.5477426e-05
2.1775533e-05
2.2022079e-05
2.2783235e-05
2.1080239e-05
2.2622741e-05
2.4863753e-05
2.3569241e-05
2.3757609e-05
1.9906113e-05
2.1386737e-05
2.0470013e-05
2.0800501e-05
1.9369077e-05
1.885046e-05
1.785459e-05
1.8346974e-05
3.19022e-05
2.3114942e-05
2.2261484e-05
2.3037586e-05
2.1522656e-05
2.0884309e-05
1.9220426e-05
1.8709675e-05
1.9749185e-05
2.0300764e-05
1.7739654e-05
1.8215165e-05
2.3183818e-05
2.5283915e-05
2.4239141e-05
0.0089934281
0.001092502
0.00052011911
0.0019923764
0.00011675231
8.6787724e-05
0.010175584
0.00015279438
8.876565e-05
2.5832101e-05
0.001060804
0.00074295234
2.8609409e-05
0.00020156116
0.0034842895
0.0012219525
0.00025680508
0.00020669641
6.0648316e-05
0.00023557733
0.0010614513
0.00024455068
0.00027036447
0.00019113299
0.00023842107
0.00028432245
0.00030423553
5.0694083e-05
7.9377833e-05
0.0091918355
4.7707694e-05
0.00012054177
0.001236887
4.5783198e-05
0.0006727444
0.00034063093
0.00010617591
0.0019561717
0.00023483943
0.00055165419
0.00017695695
0.00019141334
0.002138135
0.00033981887
0.00015963068
0.0028034749
0.00055504826
0.00056498675
0.00081141465
0.00016328161
0.00017890602
6.7075686e-05
0.00016264029
0.00010791514
0.0030749278
0.038866793
0.0050668621
0.0095895729
3.9093173e-06
9.3531848e-05
3.2286754e-05
0.00015437461
2.8898515e-05
4.4786589e-05
0.00013063901
0.00012350055
1.9037363e-05
4.3178859e-05
8.4479508e-05
8.013033e-05
0.00015025492
0.00010472319
6.4488034e-05
0.00014213911
9.9200507e-05
6.8402082e-05
2.8060708e-07
0.0001378331
3.3827599e-07
3.3287322e-07
0.00011684053
3.3484782e-07
5.4572809e-05
8.5791424e-07
8.1152526e-08
8.9096856e-05
2.4301467e-07
2.564562e-07
7.6025329e-05
2.2912301e-07
2.0755995e-07
0.00014505419
6.3333703e-07
3.4539833e-07
0.00011059501
3.0235805e-07
3.1872777e-07
6.0267312e-05
8.826121e-08
6.4662646e-08
7.7580973e-06
7.1486368e-06
0.00013713331
5.1472868e-06
4.2034917e-05
2.932054e-05
5.1179039e-05
9.3997451e-05
2.8594486e-07
2.710405e-07
7.213673e-05
1.0330461e-07
1.6649751e-07
6.3183263e-06
1.588479e-05
1.6917694e-05
2.2268313e-05
1.8759362e-05
1.527806e-05
1.4527615e-05
1.3047284e-05
1.3789524e-05
9.6611219e-06
7.4022084e-06
7.0942515e-06
1.04882e-05
1.1070213e-05
1.2346663e-05
1.1690714e-05
9.929679e-06
9.3381889e-06
7.9145412e-06
8.6003509e-06
6.2371203e-05
6.1111445e-05
6.5503448e-05
6.6800642e-05
6.6678613e-05
6.5627253e-05
6.3375547e-05
6.4227299e-05
6.5530968e-05
6.67993e-05
6.6678806e-05
6.5634732e-05
5.2192694e-05
5.6619664e-05
5.9350916e-05
6.5261266e-05
6.606027e-05
6.6431329e-05
6.4900894e-05
6.7486837e-05
6.6908969e-05
6.7610642e-05
6.3833972e-05
6.5567334e-05
6.4956288e-05
6.4424977e-05
6.5336067e-05
6.5947879e-05
6.642262e-05
6.5125145e-05
6.3315439e-05
6.4471552e-05
5.8479374e-05
6.4789185e-05
1.3676164e-05
0.00017804533
0.00016500036
1.6690207e-05
1.36781e-05
0.0001563328
1.6700194e-05
0.00017477631
0.00016129036
0.00014825111
0.00010624868
1.3093292e-05
1.3230461e-05
0.00017127343
1.5923334e-05
9.4196776e-05
0.00011122652
9.8429617e-05
3.2685932e-05
3.7311012e-05
3.1387394e-05
2.6688593e-05
1.1238946e-05
1.3580265e-05
1.1440923e-05
1.497586e-05
0.00010375901
1.6122424e-05
0.00010045257
1.3640871e-05
4.3467471e-05
6.1962742e-05
5.2288016e-05
2.1394327e-05
2.531347e-05
1.2121903e-05
1.3516638e-05
6.6509511e-05
6.5780761e-05
6.3077268e-05
6.5291548e-05
2.0270317e-05
1.4556376e-05
1.3495427e-05
4.451176e-05
3.7280697e-05
2.9709499e-05
3.5202034e-05
1.6731609e-05
2.2402491e-05
2.8098482e-05
2.373622e-05
4.749464e-05
6.1990865e-05
6.6487494e-05
6.6535388e-05
6.6092437e-05
0.00017841222
6.418563e-05
6.3605461e-05
0.0001587337
0.00011754971
0.00011392252
2.5197662e-05
1.6565328e-05
2.525615e-05
4.5979852e-05
0.00014003137
3.8540169e-05
2.4770935e-05
1.676656e-05
2.2720521e-05
4.857568e-05
6.3538424e-05
6.3212915e-05
0.00013458337
5.9849627e-05
4.7455361e-05
0.00017593174
6.0999936e-05
6.3143306e-05
1.3705507e-05
2.4079804e-05
1.6461818e-05
3.8773016e-05
3.6562035e-05
0.00012479873
3.0694751e-05
3.6385941e-05
2.6003516e-05
2.7496277e-05
8.6036799e-05
2.901647e-05
2.4057266e-05
1.5843398e-05
1.7692392e-05
2.4603319e-05
2.3287128e-05
4.1188463e-05
4.3914529e-05
1.1821569e-05
1.6485938e-05
2.4441621e-05
2.5132609e-05
5.8159211e-05
6.8914826e-05
6.0287097e-05
6.7510557e-05
5.743209e-05
6.2668229e-05
6.5580632e-05
6.7244621e-05
6.6881442e-05
7.39219e-05
6.6402736e-05
7.3770314e-05
6.6150635e-05
7.3063597e-05
7.3485656e-05
7.0042036e-05
6.3954874e-05
7.0998797e-05
6.4683671e-05
7.2506825e-05
7.1818037e-05
4.2099868e-05
4.189638e-05
3.9644293e-05
3.2582834e-05
3.450676e-05
3.9503665e-05
3.5299258e-05
3.739501e-05
3.0778305e-05
2.9085598e-05
2.8149792e-05
3.1425257e-05
2.9770907e-05
3.3336879e-05
3.325336e-05
3.1497409e-05
1.6041252e-05
1.946932e-05
1.8671207e-05
1.9792647e-05
1.8769493e-05
2.105489e-05
2.1331782e-05
2.010523e-05
2.6628709e-05
2.6571264e-05
2.5198671e-05
2.0887144e-05
2.2050802e-05
2.5114976e-05
2.2568986e-05
2.3850468e-05
6.0831966e-05
6.5106777e-05
6.2257231e-05
6.3674732e-05
5.9387498e-05
6.2180869e-05
4.4872335e-05
5.1209034e-05
4.8193958e-05
5.0892728e-05
4.7149309e-05
5.609964e-05
5.7620455e-05
5.2434394e-05
6.7484246e-05
6.668767e-05
6.7501404e-05
6.6684082e-05
7.3955301e-05
6.6443258e-05
7.3913817e-05
6.645714e-05
7.4191732e-05
7.3908167e-05
6.7565366e-05
6.6854242e-05
6.7628389e-05
6.6756173e-05
6.4781174e-05
6.6454902e-05
6.3669901e-05
6.7374213e-05
7.3533632e-05
5.3741251e-05
5.1824355e-05
8.6630966e-05
6.1869611e-05
7.4814448e-05
7.4451956e-05
1.6666668e-05
1.9279204e-05
1.9261005e-05
1.6705487e-05
1.9272342e-05
1.9277e-05
1.5594525e-05
1.8353095e-05
1.7882063e-05
1.6268546e-05
1.8610745e-05
1.8790346e-05
1.6625614e-05
1.914222e-05
1.9212706e-05
1.6721678e-05
1.9432093e-05
1.9323752e-05
1.4960774e-05
1.5047419e-05
1.6929393e-05
1.6387418e-05
1.9048857e-05
1.8932235e-05
1.3659901e-05
0.00016592584
0.00014811834
0.00014958657
1.3669368e-05
0.00012260446
0.00013318126
0.00011063248
0.00011895796
8.8540171e-05
9.9040735e-05
1.2908894e-05
1.3342844e-05
7.8360118e-05
8.1185551e-05
6.7670203e-05
1.2193043e-05
3.084243e-05
3.6947439e-05
2.9795734e-05
2.8242814e-05
1.3627943e-05
1.2342872e-05
8.8285575e-05
0.00010445064
8.8713984e-05
8.5823857e-05
0.00010321517
8.7767375e-05
1.365586e-05
2.2682922e-05
2.3901639e-05
1.2621176e-05
1.3437545e-05
1.8969494e-05
1.7667974e-05
1.2549272e-05
5.8648368e-05
6.0101343e-05
6.1582614e-05
6.4605932e-05
6.3156542e-05
6.4173954e-05
6.2362488e-05
6.2752309e-05
6.3956907e-05
6.2258274e-05
6.2570779e-05
0.0001636178
0.00014312109
0.00014759426
0.00013199015
0.00011875452
0.00013336826
0.00012774611
0.00011729486
0.00013167132
2.1513427e-05
2.5388933e-05
2.1527003e-05
2.5342309e-05
2.1398367e-05
2.1479684e-05
4.3317494e-05
5.0095845e-05
4.7384632e-05
4.0847598e-05
4.2183067e-05
4.4790612e-05
2.1269134e-05
2.2247017e-05
2.1135809e-05
2.1225231e-05
2.5230384e-05
2.1211269e-05
5.2161486e-05
5.2515332e-05
5.1233363e-05
6.3210265e-05
6.1419104e-05
5.572337e-05
5.7362813e-05
6.3416284e-05
6.3313908e-05
5.7864801e-05
5.8519941e-05
5.5872809e-05
4.0411935e-05
5.396618e-05
5.1669254e-05
6.1869978e-05
5.9604352e-05
6.0604407e-05
6.2563429e-05
6.1833971e-05
6.1236587e-05
2.0466389e-05
2.3051061e-05
1.9840599e-05
1.6064924e-05
2.1320168e-05
1.8465908e-05
3.2471863e-05
3.3556973e-05
3.5602125e-05
3.4365712e-05
3.9905698e-05
3.7604476e-05
2.7391444e-05
3.1774463e-05
2.9729662e-05
2.5614438e-05
2.3593497e-05
2.7710445e-05
6.605874e-05
6.4980379e-05
6.6427087e-05
7.2353037e-05
6.6929725e-05
6.642582e-05
6.4051797e-05
7.1150904e-05
2.0778261e-05
2.4766772e-05
2.0993488e-05
2.1291603e-05
2.495368e-05
2.1156547e-05
0.0045848459
0.0023147462
0.0085925638
0.0024780626
0.004889367
7.5467891e-05
0.00035117726
0.00011828727
9.7524779e-05
0.00024897
0.00013741979
9.6372947e-05
0.00014320702
0.00042005039
0.00025177992
0.00099285576
6.8256801e-05
7.8782415e-05
0.00010495214
0.00016286284
8.6489416e-05
0.00023476624
9.6276952e-05
0.00010968972
9.1639007e-05
0.00016270896
0.00046005259
0.00015542062
8.1286128e-05
0.0025034025
3.0700871e-07
0.0001828612
2.4582732e-07
0.00017845453
1.9354045e-05
2.0237512e-05
0.00017616318
2.805624e-07
0.00018162614
4.2175863e-07
0.0001792047
2.3905772e-05
2.1398594e-05
0.00022496328
0.00021956655
0.00021432119
5.9580858e-05
6.1187402e-05
6.3126129e-05
6.2275614e-05
4.2928338e-05
6.1118565e-05
6.2318671e-05
6.0296033e-05
6.30116e-05
5.6805759e-05
5.1719603e-05
6.6819493e-05
6.5078047e-05
6.3576875e-05
6.4194652e-05
6.4475573e-05
3.4445074e-05
3.6300888e-05
6.2447475e-05
6.0023829e-05
6.4374605e-05
6.5375705e-05
6.7691381e-05
6.7705933e-05
7.2808435e-05
7.2324436e-05
5.7600021e-05
4.9242284e-05
5.6487976e-05
5.0948882e-05
3.6030661e-05
3.5076506e-05
6.623307e-05
6.6583472e-05
6.5801021e-05
6.5765165e-05
6.5180511e-05
6.6399866e-05
6.0692672e-05
5.7927435e-05
5.3581613e-05
5.4705538e-05
5.6204359e-05
5.2160198e-05
5.5018602e-05
5.9219809e-05
5.6469344e-05
5.7720042e-05
4.9381099e-05
5.3229404e-05
5.0760928e-05
5.1775753e-05
4.8029551e-05
4.8951009e-05
5.0351097e-05
4.6701185e-05
3.8424037e-05
4.4780697e-05
3.5506493e-05
3.7153951e-05
4.0528282e-05
3.8510712e-05
3.7784635e-05
4.2890946e-05
4.1685565e-05
4.4131652e-05
4.5402923e-05
3.739275e-05
3.9798994e-05
5.7202874e-05
5.4344121e-05
5.576961e-05
5.2932549e-05
5.1538751e-05
4.7481343e-05
4.6176139e-05
4.8809375e-05
5.0164436e-05
3.798769e-05
3.7129412e-05
3.8993646e-05
4.008754e-05
4.3648268e-05
4.4898365e-05
4.2426789e-05
4.1237095e-05
4.8508446e-05
5.6205788e-05
4.7796317e-05
6.6677273e-05
6.6097067e-05
7.1800716e-05
6.7142253e-05
6.7492935e-05
7.2611524e-05
7.2272497e-05
6.2266919e-05
6.3388266e-05
6.2457501e-05
6.774229e-05
5.5266662e-05
5.6806036e-05
5.8370451e-05
6.4335173e-05
6.1404693e-05
5.9934874e-05
6.5983507e-05
6.7225061e-05
0.0070137444
0.0030395693
8.0578685e-05
0.00010492496
0.00017396353
9.276667e-05
7.7993335e-05
0.00013736205
0.0054197664
0.0056677807
4.3642843e-06
4.5254549e-06
4.2099558e-06
4.0631591e-06
0.002599112
0.0010628988
0.0029594049
0.068888683
0.0013790575
0.000849036
0.0002748271
0.052531323
0.001225503
0.00025385976
0.00030443282
0.010173504
0.0032187624
0.0037853996
0.00065943322
0.00074656567
0.00031771174
0.00034396763
0.00016425773
0.00042222946
0.0027364014
0.00039669391
0.0035535999
0.00061856201
0.00044981995
0.012374818
0.0017512679
0.0003904952
0.00062361669
0.00030281144
0.0011871621
0.00056952976
0.0077332013
0.00032401689
0.00026895672
0.00023956151
0.00023768851
0.00049473021
0.001267391
0.00018019153
0.00064667139
0.00082638689
0.00055190926
0.00069364837
0.0002913742
0.00042677482
0.00026160309
0.0015188366
0.0005106858
0.00033248523
0.00017941324
0.00032864681
0.00019624296
0.0013676754
0.00020281791
0.16895658
0.022151521
8.8758846e-05
3.6388025e-05
0.00014766974
4.6006408e-06
4.4834469e-05
2.9105875e-05
7.1258347e-05
6.6134552e-05
0.00016152417
5.728213e-05
7.0150627e-05
7.428236e-05
6.5728431e-05
6.9483233e-05
6.9416358e-05
7.3014109e-05
4.9086169e-05
5.8973639e-05
6.1755876e-05
7.0533755e-05
7.3090703e-05
6.6884342e-05
6.1605102e-05
6.4554275e-05
6.7408627e-05
6.579013e-05
0.00021973037
0.00022502684
0.00018642844
6.5689329e-05
6.3809892e-05
6.6646254e-05
6.8501711e-05
6.7735496e-05
6.6842371e-05
6.482038e-05
6.8911944e-05
6.7704475e-05
6.4014527e-05
6.960393e-05
7.3535375e-05
7.0638477e-05
6.4651701e-05
7.1273281e-05
0.00020641073
5.2408432e-05
6.9692762e-05
6.543522e-05
6.9102645e-05
6.3134758e-05
4.301358e-05
6.5448879e-05
6.81234e-05
6.4374294e-05
6.1970192e-05
6.874224e-05
6.5090395e-05
6.3039509e-05
6.2866639e-05
6.0958297e-05
7.1130802e-05
6.9640658e-05
6.9466827e-05
5.3131899e-05
0.00021529147
6.3024896e-05
7.1070571e-05
6.9696958e-05
6.9507017e-05
6.0554962e-05
5.2119865e-05
5.7688599e-05
5.0190655e-05
5.6085888e-05
5.2838412e-05
5.8494576e-05
5.8415674e-05
5.5304396e-05
7.0864212e-05
6.8925652e-05
6.9227419e-05
7.0702092e-05
6.8469802e-05
6.9063734e-05
4.6910257e-05
4.6602612e-05
4.4430023e-05
4.7165135e-05
4.9883777e-05
4.4586748e-05
4.2224223e-05
5.9329813e-05
6.2717314e-05
5.5879674e-05
5.2754974e-05
7.1108762e-05
6.5930467e-05
7.0555151e-05
7.0000967e-05
7.4370916e-05
7.049425e-05
7.190554e-05
7.4665692e-05
7.1772642e-05
5.7515118e-05
5.8332231e-05
6.2793235e-05
5.9945341e-05
6.201856e-05
6.5239358e-05
0.0046956902
0.0078627529
0.0074597203
0.0045010203
0.01329007
0.01315372
0.0078519094
0.0065109753
0.001740817
0.0047133775
0.00050588472
0.00079927304
8.8680076e-05
0.00012206278
6.5665212e-05
0.0002042414
0.00017269159
0.00018530683
0.0010162116
0.00014662765
0.00041962553
0.0005245055
0.00016533551
7.6150762e-05
0.00035054774
0.00032225943
0.00092541022
0.00076641755
0.00014469837
0.00047348693
5.4957186e-05
0.00015442931
5.7867838e-05
0.00047254695
0.00021152306
0.00026858635
7.0674177e-05
8.2139394e-05
0.00018924911
0.00013278305
0.0085400442
9.3990747e-05
0.00013156008
4.7814119e-05
6.3331265e-05
8.9773018e-05
6.6043205e-05
4.60122e-05
0.00016003231
0.00010820418
0.00011352806
5.3793738e-05
5.5998426e-05
7.8471883e-05
7.5108277e-05
4.1097962e-05
3.9610157e-05
0.00013833443
0.00016597082
0.00016681115
3.462839e-07
6.6988808e-07
4.2129769e-07
0.00014551287
4.1690259e-07
1.4391027e-07
4.9710374e-05
1.496094e-07
1.9143167e-07
6.0756649e-05
1.8364299e-07
1.3830419e-07
4.4294563e-05
1.3315184e-07
2.86727e-07
9.8455147e-05
3.0042752e-07
4.0320503e-07
0.00012518321
3.8440284e-07
2.733377e-07
8.5795058e-05
2.6116892e-07
1.9994281e-07
6.8901021e-05
2.0860954e-07
0.00015301968
3.9395059e-07
3.5051439e-07
5.1701715e-05
1.621173e-07
1.5581693e-07
5.8317039e-05
1.6900651e-07
1.7600455e-07
4.265653e-05
1.233971e-07
1.2806547e-07
3.8189389e-05
1.1878341e-07
1.1454034e-07
0.0001031832
3.3095315e-07
3.1549176e-07
0.00011917576
3.4795649e-07
3.6535129e-07
8.2032442e-05
2.3841139e-07
2.4926432e-07
7.1921613e-05
2.2779945e-07
2.1811019e-07
2.1064458e-05
2.3946012e-05
1.7440131e-05
1.8229935e-05
1.9628223e-05
1.8773186e-05
5.9008929e-06
6.1387185e-06
6.6530701e-06
6.3900233e-06
7.8587302e-06
7.5335044e-06
6.9320401e-06
7.2242315e-06
5.6740152e-06
5.4590622e-06
5.0585987e-06
5.2532564e-06
4.8718587e-06
4.6950676e-06
1.1774252e-05
1.2347138e-05
1.3604671e-05
1.2958019e-05
1.6632802e-05
1.58069e-05
1.4295094e-05
1.502512e-05
1.1231271e-05
1.0722557e-05
9.7859436e-06
1.0239783e-05
8.2035417e-06
8.5656235e-06
9.3557215e-06
8.9507946e-06
0.00019645255
0.00020546802
0.00016270253
0.00012118236
7.6127687e-05
5.9116903e-05
8.316586e-05
0.00010990385
0.00011744688
0.00012319088
8.4876616e-05
7.7912554e-05
4.3312961e-05
5.4548564e-05
4.0241158e-05
6.0235106e-05
4.5742525e-05
3.5910646e-05
3.5669797e-05
2.4162896e-05
2.8011888e-05
3.4186795e-05
2.9379251e-05
1.2059089e-05
1.3629969e-05
1.6116568e-05
1.4178395e-05
2.3089853e-05
2.0057141e-05
1.6795504e-05
1.9208685e-05
1.1613573e-05
1.032983e-05
8.9060857e-06
9.9635609e-06
8.6037666e-06
0.00017793302
0.00013549022
0.00013078013
0.00018497725
8.9287217e-05
0.00012348981
0.00011844114
9.2139215e-05
0.00019734342
0.00014703326
0.00015822901
5.8624228e-05
0.00020474592
0.00019199714
0.00014829959
0.00013442032
0.00012232959
0.00013395925
0.00010032798
0.00011071232
6.9833722e-05
6.3474437e-05
5.8294025e-05
6.4188682e-05
4.945229e-05
5.3640432e-05
0.0001511704
0.00016910772
3.3804742e-05
9.1055848e-05
6.9256701e-05
7.5726326e-05
5.0425436e-05
4.5674689e-05
4.2259572e-05
0.00016063862
0.0001848679
0.00016668224
0.0001865977
0.00016931666
0.00016958103
9.7873425e-05
9.2051431e-05
0.0001009957
0.00010220109
9.3264224e-05
0.00010247558
7.4811866e-05
8.409445e-05
7.6997155e-05
7.1195304e-05
6.5658019e-05
7.1510883e-05
7.8126714e-05
8.5172849e-05
7.801037e-05
6.8696388e-05
6.4958274e-05
7.0648208e-05
5.3825112e-05
5.9845876e-05
5.524072e-05
6.0478059e-05
9.9917916e-05
9.1134225e-05
8.2978898e-05
4.6693938e-05
3.6358611e-05
3.9165915e-05
6.3597142e-05
6.1925213e-05
0.00015226746
0.00013750025
0.0001526208
0.00014479001
0.00013537435
0.00015004864
0.00011283997
0.00012435146
0.0001128052
0.00010753417
0.00012246469
0.00011107277
6.1420907e-05
6.0539044e-05
6.3559976e-05
6.2392305e-05
6.412176e-05
6.4615267e-05
0.00016699332
4.1401042e-05
8.1640115e-05
6.4541946e-05
8.4194323e-05
6.3209488e-05
4.6164196e-05
5.8273925e-05
0.00010665237
0.00010131657
3.9556909e-05
4.9803709e-05
4.7323431e-05
5.1083254e-05
5.9093126e-05
5.0618537e-05
5.7966224e-05
3.7571509e-05
3.8734539e-05
1.2570355e-05
1.3064148e-05
1.5415958e-05
1.4807354e-05
1.1151741e-05
1.0747823e-05
9.2517113e-06
9.584177e-06
2.5402594e-05
2.6611074e-05
3.2480832e-05
3.0945204e-05
2.1990179e-05
2.1037128e-05
1.7576069e-05
1.8335077e-05
8.2891023e-06
3.6374352e-05
3.5263846e-05
3.1953235e-05
3.3615115e-05
3.0493494e-05
2.8431926e-05
0.0187655
0.00019853459
0.00034719461
0.00013467371
8.9862393e-05
0.0079494649
0.0031845022
0.00096759084
0.0015496125
0.00030656122
0.00020440084
0.0024500407
0.0032245368
0.00041326807
6.324425e-05
0.00044182431
0.0010368561
0.00033090554
0.00059726741
0.00029753123
0.00026257123
0.0001116612
0.00099084835
0.00060327822
0.00075314851
0.00015303432
0.00027594718
0.00054588686
7.6916916e-05
0.00017376076
0.00051339652
0.00025269066
0.030465837
0.0063948664
0.017738916
0.0049543239
0.0004500287
0.00047097611
0.00031681476
0.00036943207
0.00030022783
0.00038958745
0.00053242163
0.0002270114
0.0003704585
0.00054789617
0.00024989761
1.3286875e-06
0.00042944516
1.2699455e-06
1.3823153e-06
0.00049218028
1.357465e-06
0.00010923423
3.2808398e-05
0.00033403339
8.8484879e-07
9.7724194e-07
0.00049281704
0.00013989084
1.8411232e-05
0.00028419929
7.0901507e-07
4.4067128e-07
0.00040925403
1.150254e-06
1.2082593e-06
0.00051346182
1.3005807e-06
1.1232464e-06
0.00018403583
6.2150442e-07
4.3517607e-06
4.6836287e-05
3.1410969e-05
3.4848663e-05
0.0003519306
1.0916319e-06
1.0360649e-06
0.0005500581
1.26494e-06
2.2579298e-06
0.00016064359
0.00010182442
0.00026750594
3.2656665e-07
3.8889776e-07
5.7635265e-05
5.4950058e-05
4.974827e-05
5.2308999e-05
6.0142821e-05
6.2505508e-05
6.6708055e-05
6.4008433e-05
3.9927894e-05
4.2465035e-05
4.7246916e-05
4.48338e-05
7.1749e-05
8.1778249e-05
3.6760496e-05
3.3823005e-05
3.0631843e-05
3.1697168e-05
0.00067141721
0.00073236251
0.00069452089
0.00063509242
0.00058085869
0.0004185329
0.00063327312
0.00022850413
0.00036002409
0.00040656313
0.00038632064
0.00025302644
0.00045425029
0.00039628861
0.00011892686
0.00010250187
0.00012431108
0.00012190343
5.2168212e-05
9.1082129e-05
8.9945059e-05
0.00068845932
0.00025293503
0.00023393462
9.1052233e-05
9.1205131e-05
8.1681035e-05
9.7543e-05
0.00018529304
0.00014180255
7.5990746e-05
5.3640381e-05
8.3912437e-05
6.7019509e-05
8.5713293e-05
8.9180535e-05
0.00018573903
0.00021555982
0.00025126465
0.00022868944
0.00017683297
0.00015147881
0.00012132619
0.00014351598
9.0773859e-05
0.00011449052
9.6763755e-05
0.00063381148
0.00047891444
0.00045312304
7.0598551e-05
7.0449612e-05
0.00019279274
0.00074915571
0.00022007674
0.00018358691
0.0005728621
0.00015718906
7.0617426e-05
7.0532646e-05
0.00023371767
0.00020202314
0.00015655737
6.5480305e-05
6.4053171e-05
0.00029508901
9.2065335e-05
7.0424353e-05
0.00010005364
0.00040697751
9.8968859e-05
6.6632003e-05
6.7612373e-05
0.00039959344
9.416409e-05
9.8113017e-05
0.00016043644
0.00016818845
0.00025348809
0.00025171147
0.0002341307
0.00027684805
0.00020640898
0.00015284481
0.00014540713
0.00051329609
0.00012558897
0.00014890664
0.00010519377
0.0001112848
9.8931991e-05
0.00011726054
9.8147936e-05
7.1838958e-05
9.9382188e-05
9.3875544e-05
5.4462637e-05
5.1843059e-05
8.0864644e-05
9.091259e-05
8.0680178e-05
6.97293e-05
7.0160089e-05
9.0522022e-05
7.9834499e-05
8.0338207e-05
0.00025749776
0.00024875048
0.00025574173
0.0002398309
0.00024602123
0.00025310754
8.0911939e-05
9.0989306e-05
8.0869664e-05
7.0342442e-05
7.0403727e-05
9.1026758e-05
8.0871277e-05
8.0821573e-05
0.0001510543
5.9137155e-05
6.2096794e-05
7.4702228e-05
8.1096325e-05
7.2574977e-05
6.2666732e-05
7.610072e-05
6.9024617e-05
6.9159214e-05
6.8452894e-05
7.6182326e-05
8.7095021e-05
7.7358671e-05
7.9169953e-05
8.8232444e-05
7.8345551e-05
0.00017491346
0.00019489011
0.00018351588
0.00018462083
0.00017618435
0.00020455993
0.00020257831
0.00019259471
0.00019397227
0.00020359957
0.00024305436
0.00024347551
0.00022840297
0.00021415027
0.00024195285
0.00022605602
0.00016657016
0.00016815059
0.00015842413
0.00013108526
0.00013814245
0.00015969361
0.00014276229
0.00015047845
0.00012424352
0.00011763712
0.00011448271
0.00012844965
0.00012112827
0.00013528408
0.00013583483
0.00012806537
6.9993258e-05
6.6740414e-05
7.9365638e-05
7.2137555e-05
8.0460364e-05
8.5908075e-05
7.642024e-05
0.00010815443
0.00010810297
0.00010217777
8.4025774e-05
8.8723824e-05
0.00010222556
9.1438802e-05
9.6600439e-05
0.00022199069
0.00022312114
0.00021526227
0.00025260748
0.00024721829
0.00024678064
0.00025221059
0.00024733153
0.00024673482
0.00023861171
0.00022883412
0.00023351196
0.00021362982
0.00018322338
0.0002031743
0.00025196581
0.00024586019
0.0002463096
0.00025081498
0.00024338859
0.00024538869
0.00024263554
0.00024073899
0.00023745006
0.00060573346
0.00067542433
0.00060970425
0.00076420029
0.00073360799
0.00076321583
0.00047433565
0.00052523365
0.00042980344
0.00047180766
0.00034224429
0.00038644543
0.0005150465
0.00066649435
0.00054555191
0.00011329252
0.00010806239
0.00012922342
0.00013241928
0.00071893471
0.00071789453
0.00074704017
8.7339358e-05
9.2151193e-05
0.00013691738
6.258983e-05
6.4545072e-05
0.00057274493
0.00066129554
0.00059730169
0.00054244741
0.00048029964
0.00054590977
0.00051363998
0.00047099083
0.00053503904
0.00020205803
0.00021156548
0.00022067199
0.00020989401
0.00021656151
0.00022757027
0.00017453698
0.00020187558
0.00019165808
0.00016574171
0.00017255503
0.00018232804
0.00022769829
0.00022111446
0.00021825692
0.00017555304
0.00020257979
0.00020160834
8.8518142e-05
0.0001072503
0.00010179017
7.1472759e-05
8.1670511e-05
9.3351096e-05
0.00010002103
0.00011606108
0.000116826
9.9617738e-05
0.00011566786
0.00011640069
9.5760579e-05
0.00010964811
0.00011186378
9.7041568e-05
0.00011468868
0.00011332116
0.00024968986
0.00022917367
0.00024802187
0.00024688755
0.00025959982
0.00024825415
0.00013319068
0.00013674716
0.0001463178
0.00014091145
0.00016377317
0.00015454556
9.8244598e-05
0.0001141031
0.00010243737
0.00011006566
0.00012728084
0.00010834028
9.8421481e-05
0.00010421828
0.00011606296
0.00025234915
0.00025892835
0.00025211622
0.00025774226
0.00024879432
0.00025083185
0.00023384127
0.0002455537
0.00023873406
0.00024946371
0.00024610682
0.00024274524
0.0036522846
0.0019387644
0.00074451153
0.00029764067
0.00017766383
1.8218033e-05
0.00021335627
1.3616546e-05
1.369618e-05
0.0001693365
3.6839554e-05
2.000576e-05
0.00073732905
7.6450555e-05
3.8068992e-05
6.2064955e-05
4.0364857e-05
0.00010294314
1.3465801e-05
3.9228442e-05
4.6379279e-05
0.0001207012
5.8557811e-05
0.00015609125
0.00030848158
0.00038726076
2.0036491e-05
0.00043470075
0.00042634862
1.8701516e-05
2.0667736e-05
1.6623633e-05
0.00010270926
0.0001849169
0.00011606764
0.00010357334
2.5884365e-05
1.9208993e-05
5.6452922e-05
1.7914311e-05
1.4812989e-05
1.5202718e-05
7.3056962e-05
4.8346573e-05
9.9599014e-05
0.00063157129
1.8159438e-05
9.4781248e-05
4.434045e-05
2.231021e-05
3.0377288e-05
2.948829e-05
4.1950016e-05
6.8692305e-05
6.0069291e-05
0.00010202652
0.00010113566
1.7254505e-05
7.4947539e-05
2.7924846e-05
0.00018014041
0.00018075367
6.5362151e-05
5.428624e-05
0.00015844338
8.1159269e-05
4.4278429e-05
5.1859784e-05
1.7489202e-05
1.3203395e-05
7.239333e-05
0.0052447808
0.0029137837
1.1432072e-06
2.7496154e-05
9.300967e-06
4.6260049e-05
8.4499274e-06
1.2785076e-05
1.945533e-05
1.8641417e-05
6.8801988e-07
5.5999203e-06
3.9042951e-06
6.7432829e-06
9.2163689e-08
5.7917172e-05
5.4913341e-05
6.260167e-05
7.1848641e-06
1.687809e-05
1.6695705e-05
1.7335586e-05
1.7004463e-05
1.710471e-05
1.4736794e-05
1.2451957e-05
1.6151705e-05
1.5805876e-05
1.6385073e-05
1.4857583e-05
0.00055584093
0.00037245906
0.00026784738
0.00089737619
0.00096143023
0.00041446943
0.00093726845
0.0039183996
0.0024246323
0.0070934161
0.0043189083
5.5941464e-05
2.8158566e-05
3.0094626e-05
3.7699216e-05
5.9734518e-05
4.6930965e-05
3.3412375e-05
4.2707789e-05
3.3981744e-05
4.0468828e-05
2.6020365e-05
2.7102353e-05
3.6829997e-05
2.7991414e-05
2.4928401e-05
1.9782479e-05
1.6353666e-05
1.8935951e-05
7.4502436e-06
1.1465475e-05
1.0516162e-05
8.9361234e-06
1.0139876e-05
1.3529715e-05
1.3408082e-05
1.7881456e-05
1.3944202e-05
7.4522381e-06
8.4535455e-06
7.4576755e-06
9.8233052e-06
7.7871947e-06
4.2861624e-05
3.432214e-05
4.3497027e-05
0.00013546594
4.1501493e-05
4.3799839e-05
7.0683096e-05
6.4671705e-05
1.9365886e-05
8.2271247e-05
7.7854951e-05
2.0233907e-05
3.2678359e-05
3.0508639e-05
3.7799642e-05
3.5136993e-05
1.0352685e-05
4.3625926e-05
4.0814151e-05
1.0736635e-05
7.7724019e-06
8.689364e-06
7.8692788e-06
3.5115856e-05
3.8007709e-05
3.8256714e-05
5.5478995e-05
5.5834344e-05
8.9954664e-05
3.9861387e-05
4.3914299e-05
4.0818449e-05
4.0932622e-05
4.4296046e-05
4.1185997e-05
5.9898879e-05
4.7254496e-05
6.7489195e-06
7.1285611e-06
6.4486405e-06
3.3054482e-05
2.9015658e-05
2.7770558e-05
1.6014189e-05
5.2433104e-05
1.4431234e-05
1.2128922e-05
4.843057e-05
1.3875216e-05
6.8861878e-06
7.5536502e-06
6.8457494e-06
6.7692302e-06
7.442484e-06
6.7668303e-06
8.3980684e-06
8.495824e-06
8.0748193e-06
7.4425594e-06
8.0774755e-06
7.7140528e-06
5.0304852e-05
4.0245741e-05
4.2618868e-05
3.2451572e-05
3.5651601e-05
3.4121944e-05
3.816179e-05
4.2653146e-05
3.6351936e-05
2.1577776e-05
2.1423996e-05
2.0512753e-05
2.3069018e-05
1.8707881e-05
1.9639834e-05
1.5669449e-05
1.7007586e-05
1.63263e-05
1.791526e-05
2.015865e-05
1.7230701e-05
2.2563688e-05
2.4457063e-05
2.3464765e-05
2.8780658e-05
2.5608024e-05
2.4587967e-05
3.1257555e-05
3.135799e-05
2.9595425e-05
2.6550041e-05
2.937812e-05
2.7857494e-05
6.8055153e-06
7.4474494e-06
6.7994372e-06
8.4424896e-06
6.8667283e-06
1.1578062e-05
1.2627597e-05
1.1964109e-05
1.2754041e-05
1.2918427e-05
1.2288855e-05
1.5229746e-05
1.5372141e-05
1.4550295e-05
1.3262312e-05
1.4529866e-05
1.3816218e-05
1.1020075e-05
1.1072186e-05
1.0624218e-05
1.215881e-05
9.9655209e-06
1.0371191e-05
8.5838836e-06
9.2379499e-06
8.8831311e-06
9.6127143e-06
1.0875073e-05
9.3111326e-06
6.3428346e-06
6.9439308e-06
6.4052298e-06
6.3565359e-06
6.3540117e-06
7.9514773e-06
7.6885433e-06
3.0898124e-05
3.2492707e-05
2.0225217e-05
1.9346722e-05
1.4972027e-05
1.5602162e-05
2.1152958e-05
2.2134062e-05
2.9430013e-05
2.8021751e-05
6.3507967e-06
6.3457231e-06
1.0957673e-05
1.137819e-05
1.438974e-05
1.3822359e-05
1.0547183e-05
1.0166427e-05
8.2192066e-06
8.5073925e-06
6.3224106e-06
5.9922031e-06
5.1255412e-05
4.7762897e-05
5.1610469e-05
6.3503211e-06
6.3471433e-06
7.197646e-06
7.4323098e-06
3.8001586e-05