/*--------------------------------*- C++ -*----------------------------------*\
  =========                 |
  \\      /  F ield         | OpenFOAM: The Open Source CFD Toolbox
   \\    /   O peration     | Website:  https://openfoam.org
    \\  /    A nd           | Version:  8
     \\/     M anipulation  |
\*---------------------------------------------------------------------------*/
/*   Windows 32 and 64 bit porting by blueCAPE: http://www.bluecape.com.pt   *\
|  Based on Windows porting (2.0.x v4) by Symscape: http://www.symscape.com   |
\*---------------------------------------------------------------------------*/
FoamFile
{
    version     2.0;
    format      ascii;
    class       labelListList;
    location    "constant/vegetation";
    object      globalFaceFaces;
}
// * * * * * * * * * * * * * * * * * * * * * * * * * * * * * * * * * * * * * //


183
(

3020
(
2
17
18
19
20
21
22
23
1028
1694
1695
1696
1697
1702
1703
1704
1706
1708
1710
1711
1712
1713
1797
1802
1803
1838
1839
1840
1841
2022
2023
2024
2025
2032
2035
2081
2082
2087
2088
2089
2090
2091
2092
2093
2094
2095
2096
2097
2098
2099
2100
2101
2102
2103
2104
2105
2106
2107
2108
2109
2110
2111
2112
2113
2114
2115
2116
2117
2118
2119
2120
2121
2122
2123
2124
2125
2126
2127
2128
2129
2130
2131
2132
2133
2134
2135
2136
2137
2138
2139
2140
2141
2142
2143
2144
2145
2146
2147
2148
2149
2150
2151
2152
2153
2154
2155
2156
2157
2158
2159
2160
2161
2162
2163
2164
2165
2166
2167
2168
2169
2170
2171
2172
2173
2174
2175
2176
2177
2178
2179
2180
2181
2182
2183
2184
2185
2186
2187
2188
2189
2190
2191
2192
2193
2194
2195
2196
2197
2198
2199
2200
2201
2202
2203
2204
2205
2206
2207
2267
2268
2269
2270
2271
2697
2698
2865
2868
2869
2871
2906
2908
2909
3057
3071
3072
3076
3081
3236
3237
3238
3239
3240
3244
3245
3246
3247
3248
3249
3250
3251
3252
3253
3254
3255
3256
3257
3258
3259
3260
3263
3272
3274
3279
3280
3281
3282
3283
3284
3285
3286
3287
3288
3293
3294
3340
3347
3349
3391
3392
3395
3396
3397
3398
3399
3400
3401
3402
3403
3404
3405
3406
3407
3408
3409
3410
3411
3412
3413
3414
3415
3416
3417
3418
3419
3420
3421
3422
3423
3424
3425
3426
3427
3428
3429
3430
3431
3432
3433
3434
3435
3436
3437
3438
3439
3440
3441
3442
3443
3444
3445
3446
3447
3448
3449
3450
3451
3452
3453
3454
3455
3456
3457
3458
3459
3460
3461
3462
3463
3464
3465
3466
3467
3468
3469
3470
3471
3472
3473
3474
3475
3476
3477
3478
3479
3480
3481
3482
3483
3484
3485
3486
3487
3488
3489
3490
3491
3492
3493
3494
3495
3496
3497
3498
3499
3500
3501
3502
3503
3504
3505
3506
3507
3508
3509
3510
3511
3512
3513
3514
3515
3516
3517
3518
3519
3520
3521
3522
3523
3524
3525
3536
3537
3538
3539
3540
3541
3542
3543
3548
3549
3550
3551
3554
3555
3556
3557
3558
3559
3560
3561
3562
3563
3564
3565
3566
3567
3572
3573
3574
3575
3578
3579
3580
3581
3599
3600
3601
3602
3603
3604
3605
3606
3607
3608
3609
3610
3611
3612
3613
3614
3615
3616
3617
3618
3619
3620
3621
3622
3623
3624
3625
3626
3627
3628
3629
3630
3631
3632
3633
3634
3635
3636
3637
3638
3639
3640
3641
3642
3643
3644
3645
3646
3647
3648
3649
3650
3651
3652
3653
3654
3655
3656
3657
3658
3659
3660
3661
3662
3663
3664
3665
3666
3667
3668
3669
3670
3671
3672
3673
3674
3675
3676
3677
3678
3679
3680
3681
3682
3684
3685
3686
3687
3688
3689
3690
3691
3692
3693
3694
3695
3696
3697
3699
3700
3701
3702
3703
3704
3705
3706
3707
3708
3709
3710
3711
3712
3713
3714
3715
3716
3717
3718
3719
3720
3721
3722
3723
3724
3725
3726
3727
3728
3730
3731
3732
3733
3734
3735
3736
3737
3738
3739
3740
3741
3742
3743
3744
3745
3746
3747
3748
3749
3750
3751
3752
3753
3754
3755
3756
3757
3758
3759
3760
3761
3762
3763
3764
3765
3766
3767
3769
3770
3771
3772
3773
3774
3775
3776
3777
3778
3779
3780
3781
3782
3783
3784
3785
3786
3787
3788
3789
3790
3791
3793
3794
3795
3796
3797
3798
3799
3800
3801
3802
3803
3804
3805
3806
3807
3808
3809
3810
3811
3812
3813
3814
3815
3816
3817
3818
3819
3820
3821
3822
3823
3824
3825
3826
3827
3828
3829
3830
3831
3832
3833
3834
3835
3836
3837
3838
3839
3840
3841
3842
3843
3844
3845
3846
3847
3848
3849
3850
3851
3852
3853
3854
3855
3856
3857
3858
3859
3860
3864
3866
3867
3871
3872
3873
3874
3875
3876
3877
3878
3879
3880
3881
3882
3883
3884
3885
3886
3887
3888
3889
3890
3891
3892
3893
3894
3895
3896
3897
3898
3899
3900
3901
3902
3903
3904
3905
3906
3907
3908
3909
3910
3911
3912
3913
3914
3915
3916
3917
3918
3919
3920
3921
3922
3923
3924
3925
3926
3927
3928
3929
3930
3931
3932
3933
3934
3935
3936
3937
3938
3939
3940
3941
3942
3943
3944
3945
3946
3947
3948
3949
3950
3951
3952
3953
3954
3955
3956
3957
3958
3961
3964
3966
3967
3968
3971
3979
3980
3982
3983
3989
3991
3994
3995
3997
4004
4008
4009
4010
4011
4012
4018
4019
4020
4021
4022
4023
4026
4027
4028
4033
4034
4035
4036
4037
4038
4042
4045
4046
4047
4048
4102
4103
4106
4110
4112
4120
4121
4127
4128
4146
4147
4148
4149
4150
4151
4152
4159
4160
4161
4162
4163
4199
4200
4217
4218
4221
4222
4225
4226
4227
4228
4253
4254
4255
4256
4257
4258
4264
4265
4266
4267
4268
4269
4290
4291
4292
4293
4294
4295
4296
4297
4298
4299
4300
4301
4302
4303
4304
4305
4306
4307
4308
4310
4311
4314
4328
4329
4331
4333
4335
4337
4339
4342
4343
4344
4345
4346
4347
4348
4349
4350
4351
4352
4353
4354
4355
4356
4357
4358
4359
4360
4365
4366
4367
4373
4374
4376
4377
4378
4379
4380
4409
4410
4411
4412
4413
4421
4422
4423
4425
4426
4427
4428
4457
4459
4467
4477
4486
4488
4491
4509
4515
4516
4517
4518
4519
4520
4530
4532
4537
4540
4541
4542
4543
4544
4545
4546
4547
4548
4549
4550
4551
4552
4553
4554
4555
4556
4557
4558
4559
4560
4561
4562
4563
4564
4565
4566
4567
4568
4569
4571
4573
4574
4575
4576
4577
4578
4579
4580
4581
4582
4583
4585
4586
4587
4588
4589
4590
4591
4592
4593
4594
4595
4596
4597
4598
4599
4600
4601
4602
4603
4604
4605
4606
4607
4608
4609
4610
4611
4612
4613
4614
4615
4616
4617
4618
4619
4620
4621
4622
4623
4624
4625
4626
4627
4628
4629
4630
4631
4632
4633
4634
4635
4636
4637
4638
4639
4640
4641
4642
4643
4644
4645
4646
4647
4648
4649
4650
4651
4652
4653
4654
4655
4656
4657
4658
4659
4660
4661
4662
4663
4664
4665
4666
4667
4668
4669
4670
4671
4672
4673
4674
4675
4676
4677
4678
4679
4680
4681
4682
4683
4684
4685
4686
4687
4688
4689
4690
4691
4692
4693
4694
4695
4696
4697
4698
4699
4700
4701
4702
4703
4704
4705
4706
4707
4709
4710
4711
4712
4714
4717
4719
4720
4721
4722
4724
4728
4729
4730
4731
4732
4733
4734
4735
4736
4737
4738
4739
4740
4742
4743
4744
4745
4746
4747
4748
4749
4754
4755
4765
4794
4795
4796
4797
4799
4800
4801
4802
4803
4804
4805
4806
4807
4808
4809
4810
4811
4812
4813
4814
4815
4816
4817
4818
4819
4820
4821
4822
4823
4824
4825
4826
4827
4828
4829
4830
4831
4832
4833
4834
4835
4836
4837
4838
4839
4840
4841
4842
4843
4844
4845
4846
4847
4848
4849
4850
4851
4852
4853
4854
4855
4856
4857
4858
4859
4860
4861
4862
4863
4864
4865
4866
4867
4868
4869
4870
4871
4872
4873
4874
4875
4876
4877
4878
4879
4880
4881
4882
4883
4884
4885
4886
4887
4888
4889
4890
4891
4892
4893
4894
4895
4896
4897
4898
4899
4900
4901
4902
4903
4904
4905
4906
4907
4908
4909
4910
4911
4912
4913
4914
4915
4916
4917
4918
4919
4920
4921
4922
4923
4924
4925
4926
4927
4928
4929
4930
4931
4932
4933
4934
4935
4936
4937
4938
4939
4940
4941
4942
4943
4944
4945
4946
4947
4948
4949
4950
4951
4952
4953
4954
4955
4956
4957
4958
4959
4960
4961
4962
4963
4964
4965
4966
4967
4968
4969
4970
4971
4972
4973
4974
4975
4976
4977
4978
4979
4980
4981
4982
4983
4984
4985
4986
4987
4988
4989
4990
4991
4992
4993
4994
4995
4996
4997
4998
4999
5000
5001
5002
5003
5004
5005
5006
5007
5008
5009
5010
5011
5012
5013
5014
5015
5016
5017
5018
5019
5020
5021
5022
5023
5024
5025
5026
5027
5028
5029
5030
5031
5032
5033
5034
5035
5036
5037
5038
5039
5040
5041
5042
5043
5044
5045
5046
5047
5048
5049
5050
5051
5052
5053
5054
5055
5056
5057
5058
5059
5060
5061
5062
5063
5064
5065
5066
5067
5068
5069
5070
5071
5072
5073
5074
5092
5093
5094
5095
5096
5097
5098
5100
5101
5102
5103
5104
5105
5106
5108
5109
5111
5112
5113
5114
5115
5116
5117
5118
5119
5120
5121
5122
5123
5124
5125
5126
5127
5128
5129
5130
5155
5156
5157
5158
5159
5160
5161
5162
5163
5164
5165
5166
5167
5168
5169
5170
5171
5173
5174
5175
5176
5177
5178
5179
5180
5181
5182
5183
5184
5185
5186
5187
5188
5189
5190
5191
5192
5194
5195
5196
5197
5198
5199
5200
5201
5202
5203
5204
5205
5206
5207
5210
5211
5212
5213
5214
5215
5216
5217
5220
5221
5222
5223
5224
5225
5226
5227
5228
5229
5547
5548
5549
5550
5551
5552
5553
5554
5555
5556
5557
5558
5559
5560
5561
5562
5563
5564
5565
5566
5567
5568
5569
5570
5571
5572
5573
5574
5575
5576
5577
5578
5579
5580
5581
5582
5583
5584
5585
5586
5587
5588
5589
5590
5591
5592
5593
5594
5595
5596
5598
5599
5600
5601
5602
5603
5604
5605
5607
5608
5609
5610
5611
5613
5614
5615
5616
5617
5618
5619
5620
5622
5623
5624
5625
5626
5628
5629
5630
5631
5632
5634
5635
5637
5638
5639
5640
5641
5643
5644
5645
5646
5647
5650
5652
5653
5654
5655
5656
5657
5658
5660
5661
5662
5663
5664
5665
5666
5667
5668
5669
5670
5671
5672
5673
5675
5676
5677
5678
5679
5680
5682
5683
5684
5685
5686
5689
5690
5691
5693
5694
5695
5696
5697
5700
5701
5702
5703
5704
5705
5707
5708
5709
5710
5711
5713
5714
5715
5716
5717
5718
5719
5720
5721
5722
5723
5725
5726
5727
5728
5729
5731
5732
5733
5734
5735
5736
5737
5738
5740
5741
5743
5744
5745
5746
5747
5748
5749
5750
5752
5753
5754
5755
5756
5757
5758
5759
5760
5761
5762
5763
5764
5765
5766
5767
5768
5772
5773
5774
5775
5776
5777
5778
5779
5780
5781
5782
5783
5796
5797
5798
5799
5800
5801
5802
5803
5804
5805
5806
5807
5808
5809
5810
5812
5813
5814
5815
5818
5819
5820
5824
5825
5826
5827
5828
5844
5845
5846
5847
5848
5849
5850
5851
5852
5853
5854
5855
5856
5857
5858
5859
5860
5861
5862
5863
5864
5869
5870
5871
5872
5873
5874
5875
5876
5877
5878
5879
5880
5883
5884
5885
5886
5887
5888
5889
5890
5891
5892
5893
5894
5900
5901
5902
5903
5904
5905
5908
5909
5910
5911
5912
5913
5916
5917
5918
5919
5920
5921
5922
5923
5924
5925
5926
5927
5928
5929
5930
5931
5932
5933
5934
5935
5936
5960
5961
5963
5964
5965
5966
5968
5969
5970
5971
5972
5974
5975
5976
5977
5978
5979
5980
5982
5983
5984
5986
5987
5988
5989
5990
5991
5992
5993
5994
5995
5996
5997
5998
5999
6001
6002
6003
6004
6005
6006
6007
6008
6009
6010
6011
6012
6013
6014
6015
6016
6017
6018
6019
6020
6021
6022
6023
6024
6025
6026
6027
6028
6029
6030
6031
6034
6035
6036
6037
6038
6039
6040
6041
6042
6043
6044
6045
6046
6047
6048
6049
6050
6051
6052
6053
6054
6056
6074
6087
6090
6091
6093
6094
6096
6099
6100
6105
6106
6107
6108
6176
6177
6182
6183
6187
6188
6189
6201
6202
6203
6204
6266
6267
6270
6271
6272
6273
6274
6316
6317
6318
6319
6320
6321
6322
6323
6324
6325
6326
6327
6332
6333
6334
6335
6336
6337
6338
6339
6340
6341
6342
6343
6344
6380
6381
6382
6395
6396
6397
6398
6399
6400
6401
6402
6403
6404
6405
6412
6413
6414
6415
6416
6417
6499
6500
6501
6533
6534
6535
6536
6537
6586
6661
6662
6663
6664
6665
6666
6888
6889
6890
6891
6892
6893
6894
6895
6896
6897
6898
6899
6900
6901
6902
6903
6904
6905
6906
6907
6908
6909
6910
6911
6912
6913
6914
6915
6916
6917
6918
6919
6920
6921
6922
6923
6924
6925
6926
6927
6928
6929
6930
6931
6932
6933
6934
6935
6936
6937
6938
6939
6940
6941
6942
6943
6944
6945
6946
6947
6948
6949
6950
6951
6952
6953
6954
6955
6956
6957
6958
6959
6960
6961
6962
6963
6964
6965
6966
6967
6968
6969
6970
6971
6972
6973
6974
6975
7013
7015
7016
7018
7019
7021
7022
7024
7025
7027
7028
7030
7031
7033
7034
7036
7037
7040
7041
7043
7044
7046
7047
7049
7050
7052
7053
7056
7057
7075
7076
7077
7095
7096
7100
7101
7115
7116
7117
7118
7122
7123
7127
7128
7132
7133
7137
7138
7145
7149
7150
7154
7155
7159
7160
7164
7165
7169
7170
7171
7172
7173
7174
7175
7176
7177
7178
7179
7180
7181
7182
7183
7184
7185
7186
7187
7188
7189
7190
7191
7192
7193
7194
7195
7196
7197
7198
7199
7200
7201
7202
7203
7204
7205
7206
7207
7208
7209
7210
7211
7212
7265
7300
7301
7302
8289
8290
8292
8293
8294
8295
8296
8297
8298
8299
8300
8301
8302
8303
8304
8305
8306
8307
8308
8309
8310
8311
8312
8313
8314
8315
8316
8317
8318
8319
8320
8321
8322
8323
8324
8325
8326
8327
8328
8329
8330
8331
8332
8333
8334
8335
8336
8337
8338
8339
8340
8341
8342
8343
8344
8345
8346
8347
8348
8349
8350
8351
8352
8353
8354
8355
8356
8357
8358
8359
8360
8361
8362
8363
8364
8365
8366
8367
8368
8369
8370
8371
8372
8373
8374
8375
8376
8377
8378
8379
8380
8381
8382
8383
8384
8385
8386
8388
8390
8392
8395
8441
8442
8447
8448
8449
8450
8454
8455
8456
8457
8461
8465
8469
8497
8498
8499
8500
8501
8502
8503
8504
8505
8506
8507
8508
8511
8512
8513
8514
8517
8518
8519
8520
8547
8548
8601
8602
8604
8617
8618
8619
8620
8668
8669
8670
8671
8672
8673
8674
8675
8676
8677
8678
8679
8680
8681
8682
8683
8684
8685
8686
8687
8688
8689
8690
8691
8692
8693
8694
8695
8696
8697
8698
8699
8700
8701
8702
8703
8704
8705
8706
8707
8708
8709
8710
8711
8712
8713
8714
8715
8716
8717
8718
8719
8720
8721
8722
8723
8724
8725
8726
8727
8728
8729
8730
8731
8732
8733
8734
8735
8736
8737
8738
8739
8740
8741
8742
8743
8744
8745
8746
8747
8748
8749
8750
8751
8753
8754
8756
8757
8758
8759
8760
8762
8763
8764
8765
8766
8768
8769
8771
8772
8773
8774
8775
8776
8778
8779
8780
8781
8782
8783
8784
8785
8787
8788
8789
8790
8791
8792
8793
8794
8799
8800
8801
8802
8803
8804
8805
8806
8807
8808
8809
8810
8811
8812
8813
8814
8815
8817
8818
8819
8820
8821
8822
8823
8824
8825
8826
8827
8828
8829
8830
8831
8832
8833
8834
8835
8836
8837
8838
8839
8841
8842
8843
8844
8845
8846
8847
8848
8849
8850
8851
8852
8853
8854
8855
8856
8857
8858
8859
8860
8861
8862
8863
8864
8865
8867
8868
8869
8870
8871
8872
8873
8874
8875
8876
8877
8880
8881
8882
8883
8884
8885
8886
8887
8888
8889
8890
8891
8892
8893
8894
8895
8896
8897
8898
8900
8901
8902
8903
8904
8906
8907
8908
8909
8910
8911
8912
8913
8914
8915
8916
8918
8919
8920
8921
8922
8923
8924
8925
8927
8928
8929
8930
8931
8934
8935
8936
8937
8938
8939
8940
8941
8942
8943
8944
8945
8946
8947
8948
8950
8951
8952
8953
8954
8955
8956
8957
8958
8962
8963
8964
8965
8966
8967
8968
8969
8970
8971
8972
8973
8974
8975
8977
8978
8980
8981
8982
8983
8984
8985
8986
8987
8988
8989
8990
8991
8992
8994
8995
8996
8997
8999
9000
9002
9003
9007
9008
9010
9011
9013
9014
9016
9017
9019
9020
9024
9025
9027
9028
9030
9031
9033
9034
9035
9036
9044
9046
9047
9048
9049
9050
9051
9052
9053
9054
9055
9056
9057
9058
9059
9060
9061
9062
9063
9064
9065
9066
9067
9070
9071
9072
9073
9074
9075
9076
9077
9078
9079
9080
9081
9082
9083
9084
9085
9086
9087
9088
9089
9090
9095
9096
9097
9098
9099
9100
9101
9102
9103
9104
9105
9106
9107
9108
9109
9110
9111
9112
9117
9118
9119
9120
9121
9122
9123
9124
9125
9126
9127
9128
9129
9130
9131
9132
9133
9134
9135
9136
9137
9138
9139
9140
9141
9142
9143
9144
9145
9146
9147
9148
9149
9150
9151
9152
9153
9154
9155
9156
9157
9158
9159
9160
9161
9162
9163
9164
9165
9166
9167
9168
9169
9170
9171
9172
9175
9176
9177
9178
9179
9180
9243
9244
9245
9246
9247
10130
10133
10134
10154
10162
10184
10189
10278
10279
10280
10281
10283
10284
10286
10287
10288
10289
10290
10291
10292
10295
10314
10315
10316
10348
10349
10350
10351
10354
10355
10356
10380
10382
10384
10385
10387
10388
10395
10409
10410
10411
10416
10417
10418
10419
10420
10421
10432
10450
10451
10452
10453
10454
10455
10456
10457
10458
10459
10460
10461
10462
10463
10464
10465
10470
10472
10473
10476
10489
10490
10528
10539
10540
10541
10546
10547
10548
10549
10559
10561
10566
10567
10568
10569
10570
10571
10572
10573
10574
10575
10576
10577
10578
10579
10580
10581
10582
10583
10584
10585
10588
10589
10590
10591
10592
10593
10594
10595
10613
10614
10615
10616
10617
10618
10619
10620
10621
10623
10624
10628
10631
10674
10677
10685
10686
10688
10689
10690
10691
10692
10693
10694
10695
10696
10699
10712
10713
10714
10715
10716
10717
10718
10719
10720
10721
10722
10723
10724
10725
10726
10727
10728
10729
10730
10731
10732
10733
10744
10760
10837
10845
10846
10849
10857
10858
10918
10925
11032
11033
11047
11049
11051
11052
11083
11084
11103
11104
11105
11106
11111
11115
11139
11140
11141
11142
11143
11144
11145
11146
11147
11148
11149
11150
11151
11152
11153
11154
11155
11156
11157
11158
11160
11161
11202
11203
11204
11205
11206
11207
11211
11224
11236
11239
11244
11247
11252
11253
11254
11255
11256
11257
11258
11259
11260
11261
11262
11263
11284
11285
11286
11287
11289
11290
11291
11347
11349
11350
12050
12052
12054
12055
12056
12057
12171
12205
12206
12267
12268
12270
12271
)


1934
(
17
20
22
1133
1138
1139
1141
1142
2089
2090
2091
2092
2093
2094
2095
2096
2097
2103
2105
2106
2107
2109
2111
2112
2113
2114
2117
2120
2122
2123
2124
2222
2270
3081
3082
3083
3084
3085
3086
3087
3097
3099
3103
3104
3105
3107
3109
3111
3192
3193
3388
3391
3392
3393
3394
3447
3448
3449
3450
3451
3452
3453
3454
3455
3456
3457
3458
3459
3460
3461
3462
3463
3464
3465
3466
3467
3468
3469
3470
3471
3472
3473
3474
3475
3476
3477
3478
3479
3480
3481
3482
3483
3484
3485
3486
3487
3488
3489
3490
3491
3492
3493
3494
3495
3496
3497
3498
3499
3500
3501
3502
3503
3504
3505
3506
3507
3508
3509
3510
3511
3512
3513
3514
3515
3516
3517
3518
3519
3520
3521
3522
3523
3524
3525
3536
3537
3538
3539
3540
3541
3542
3543
3548
3549
3550
3551
3554
3555
3556
3557
3558
3559
3560
3561
3562
3563
3564
3565
3566
3567
3572
3573
3574
3575
3578
3579
3580
3581
3599
3600
3601
3602
3603
3604
3605
3606
3607
3608
3609
3610
3611
3612
3613
3614
3615
3616
3617
3618
3619
3620
3621
3622
3623
3624
3625
3626
3627
3628
3629
3630
3631
3632
3633
3634
3635
3636
3637
3638
3639
3640
3641
3642
3643
3644
3645
3646
3647
3648
3649
3650
3651
3652
3653
3654
3655
3656
3657
3658
3659
3660
3661
3662
3663
3664
3665
3666
3667
3668
3669
3670
3671
3672
3673
3674
3675
3676
3677
3678
3679
3680
3681
3682
3684
3685
3686
3687
3688
3689
3690
3691
3692
3693
3694
3695
3696
3697
3699
3700
3701
3702
3703
3704
3705
3706
3707
3708
3709
3710
3711
3712
3713
3714
3715
3716
3717
3718
3719
3720
3721
3722
3723
3724
3725
3726
3727
3728
3730
3731
3732
3733
3734
3735
3736
3737
3738
3739
3740
3741
3742
3743
3744
3745
3746
3747
3748
3749
3750
3751
3752
3753
3754
3755
3756
3757
3758
3759
3760
3761
3762
3763
3764
3765
3766
3767
3769
3770
3771
3772
3773
3774
3775
3776
3777
3778
3779
3780
3781
3782
3783
3784
3785
3786
3787
3788
3789
3790
3791
3793
3794
3795
3796
3797
3798
3799
3800
3801
3802
3803
3804
3805
3806
3807
3808
3809
3810
3811
3812
3813
3814
3815
3816
3817
3818
3819
3820
3821
3822
3823
3824
3825
3826
3827
3828
3829
3830
3831
3832
3833
3834
3835
3836
3837
3838
3839
3840
3841
3842
3843
3844
3845
3846
3847
3848
3849
3850
3851
3852
3853
3854
3855
3856
3857
3858
3859
3860
3864
3866
3867
3871
3872
3873
3874
3875
3876
3877
3878
3879
3880
3881
3882
3883
3884
3885
3886
3887
3888
3889
3890
3891
3892
3893
3894
3895
3896
3897
3898
3899
3900
3901
3902
3903
3904
3905
3906
3907
3908
3909
3910
3911
3912
3913
3914
3915
3916
3917
3918
3919
3920
3921
3922
3923
3924
3925
3926
3927
3928
3929
3930
3931
3932
3933
3934
3935
3936
3937
3938
3939
3940
3941
3942
3943
3944
3945
3946
3947
3948
3949
3950
3953
3954
3955
3956
3957
3958
3961
3964
3966
3967
3968
4028
4033
4034
4035
4036
4037
4038
4039
4040
4041
4042
4043
4044
4045
4046
4047
4048
4063
4065
4068
4069
4070
4071
4072
4073
4075
4077
4102
4103
4120
4121
4127
4128
4146
4147
4148
4149
4150
4151
4152
4159
4160
4161
4162
4163
4217
4218
4219
4220
4221
4222
4224
4225
4226
4253
4254
4255
4256
4257
4258
4259
4260
4264
4265
4266
4267
4268
4269
4276
4291
4342
4343
4344
4365
4366
4367
4368
4369
4370
4371
4372
4373
4374
4377
4378
4385
4450
4516
4517
4518
4519
4530
4531
4532
4537
4539
4595
4596
4597
4598
4599
4600
4601
4602
4603
4604
4605
4606
4607
4608
4609
4610
4611
4612
4613
4614
4615
4616
4617
4618
4619
4620
4621
4622
4623
4624
4625
4626
4627
4628
4629
4630
4631
4632
4633
4634
4635
4636
4637
4638
4639
4640
4641
4642
4643
4644
4645
4646
4647
4648
4649
4650
4651
4652
4653
4654
4655
4656
4657
4658
4659
4660
4661
4662
4663
4664
4665
4666
4667
4668
4669
4670
4671
4672
4673
4674
4675
4676
4677
4678
4679
4680
4681
4682
4683
4684
4685
4686
4687
4688
4689
4690
4691
4692
4693
4694
4695
4696
4697
4698
4699
4700
4701
4702
4703
4704
4705
4706
4709
4710
4711
4712
4714
4717
4719
4720
4721
4799
4800
4801
4802
4803
4804
4805
4806
4807
4808
4809
4810
4811
4812
4813
4814
4815
4816
4817
4818
4819
4820
4821
4822
4823
4824
4825
4826
4827
4828
4829
4830
4831
4832
4833
4834
4835
4836
4837
4838
4839
4840
4841
4842
4843
4844
4845
4846
4847
4848
4849
4850
4851
4852
4853
4854
4855
4856
4857
4858
4859
4860
4861
4862
4863
4864
4865
4866
4867
4868
4869
4870
4871
4872
4873
4874
4875
4876
4877
4878
4879
4880
4881
4882
4883
4884
4885
4886
4887
4888
4889
4890
4891
4892
4893
4894
4895
4896
4897
4898
4899
4900
4901
4902
4903
4904
4905
4906
4907
4908
4909
4910
4911
4914
4915
4916
4923
4924
4925
4926
4927
4928
4929
4930
4931
4932
4933
4934
4935
4936
4937
4938
4939
4940
4944
4945
4946
4947
4950
4952
4953
4954
4955
4956
4957
4958
4959
4960
4961
4962
4963
4965
4966
4969
4970
4971
4973
4974
4975
4979
4980
4981
4982
4983
4984
5007
5008
5009
5013
5014
5015
5016
5017
5018
5019
5020
5024
5025
5027
5028
5029
5030
5031
5032
5033
5034
5043
5047
5048
5049
5050
5051
5052
5053
5054
5055
5056
5057
5060
5061
5062
5063
5064
5065
5066
5067
5091
5127
5128
5129
5130
5155
5156
5157
5158
5159
5160
5161
5162
5163
5164
5165
5166
5167
5168
5169
5170
5171
5173
5174
5175
5176
5177
5178
5179
5180
5181
5182
5183
5184
5185
5186
5187
5188
5189
5190
5191
5192
5194
5195
5196
5197
5198
5199
5200
5201
5202
5203
5204
5205
5206
5207
5210
5211
5212
5213
5214
5215
5216
5217
5220
5221
5222
5223
5224
5225
5226
5227
5228
5229
5547
5548
5549
5550
5551
5552
5553
5554
5555
5556
5557
5558
5559
5560
5561
5562
5563
5564
5565
5566
5567
5568
5569
5570
5571
5572
5573
5574
5575
5576
5577
5578
5579
5580
5581
5582
5583
5584
5585
5586
5587
5588
5589
5590
5591
5592
5593
5594
5595
5596
5598
5599
5600
5601
5602
5603
5604
5605
5607
5608
5609
5610
5611
5613
5614
5615
5616
5617
5618
5619
5620
5622
5623
5624
5625
5626
5628
5629
5630
5631
5632
5634
5635
5637
5638
5639
5640
5641
5643
5644
5645
5646
5647
5650
5652
5653
5654
5655
5656
5657
5658
5660
5661
5662
5663
5664
5665
5666
5667
5668
5669
5670
5671
5672
5673
5675
5676
5677
5678
5679
5680
5682
5683
5684
5685
5686
5689
5690
5691
5693
5694
5695
5696
5697
5700
5701
5702
5703
5704
5705
5707
5708
5709
5710
5711
5713
5714
5715
5716
5717
5718
5719
5720
5721
5722
5723
5725
5726
5727
5728
5729
5731
5732
5733
5734
5735
5736
5737
5738
5740
5741
5743
5744
5745
5746
5747
5748
5749
5750
5752
5753
5754
5755
5756
5757
5758
5759
5760
5761
5762
5763
5764
5765
5766
5767
5768
5772
5773
5774
5775
5776
5777
5778
5779
5780
5781
5782
5783
5796
5797
5798
5799
5800
5801
5802
5803
5804
5805
5806
5807
5808
5809
5810
5812
5813
5814
5815
5818
5819
5820
5824
5825
5826
5827
5828
5844
5845
5846
5847
5848
5849
5850
5851
5852
5853
5854
5855
5856
5857
5858
5859
5860
5861
5862
5863
5864
5869
5870
5871
5872
5873
5874
5875
5876
5877
5878
5879
5880
5883
5884
5885
5886
5887
5888
5889
5890
5891
5892
5893
5894
5900
5901
5902
5903
5904
5905
5908
5909
5910
5911
5912
5913
5916
5917
5918
5919
5920
5921
5922
5923
5924
5925
5926
5927
5928
5929
5930
5931
5932
5933
5934
5935
5936
5960
5962
6039
6040
6041
6042
6043
6044
6045
6046
6047
6048
6049
6050
6051
6052
6053
6054
6056
6060
6062
6066
6068
6069
6070
6071
6072
6073
6074
6076
6078
6080
6083
6084
6085
6086
6087
6091
6099
6100
6106
6107
6108
6155
6156
6157
6162
6171
6172
6173
6174
6176
6182
6183
6187
6203
6316
6317
6318
6321
6395
6396
6397
6893
6914
6915
6916
6917
6918
6919
6920
6921
6922
6941
7024
7025
7036
7037
7115
7116
7117
7118
7178
7179
7180
7181
7182
7183
8289
8290
8291
8317
8318
8319
8320
8321
8322
8323
8324
8325
8326
8327
8328
8329
8330
8331
8332
8333
8334
8335
8336
8337
8338
8339
8340
8341
8342
8343
8344
8345
8346
8347
8348
8349
8350
8351
8352
8353
8354
8355
8356
8357
8358
8359
8360
8361
8362
8363
8364
8365
8366
8367
8368
8369
8370
8371
8372
8373
8374
8375
8376
8377
8378
8379
8380
8381
8382
8383
8384
8385
8388
8392
8447
8448
8449
8450
8454
8455
8456
8457
8465
8497
8498
8499
8504
8506
8511
8512
8513
8514
8517
8518
8519
8520
8668
8669
8670
8671
8672
8673
8674
8675
8676
8677
8678
8679
8680
8681
8682
8683
8684
8685
8686
8687
8688
8689
8690
8691
8692
8693
8694
8695
8696
8697
8698
8699
8700
8701
8702
8703
8704
8705
8706
8707
8708
8709
8710
8711
8712
8713
8714
8715
8716
8717
8718
8719
8720
8721
8722
8723
8724
8725
8726
8727
8728
8729
8730
8731
8732
8733
8734
8735
8736
8737
8738
8739
8740
8741
8742
8743
8744
8745
8746
8747
8748
8749
8750
8751
8753
8754
8756
8757
8758
8759
8760
8762
8763
8764
8765
8766
8768
8769
8771
8772
8773
8774
8775
8776
8778
8779
8780
8781
8782
8783
8784
8789
8790
8791
8792
8793
8794
8799
8800
8801
8802
8803
8804
8805
8806
8807
8808
8809
8810
8811
8812
8813
8814
8815
8817
8818
8819
8820
8821
8822
8823
8824
8825
8826
8827
8828
8829
8830
8831
8832
8833
8834
8835
8836
8837
8838
8839
8841
8842
8843
8844
8845
8846
8847
8848
8849
8850
8851
8852
8853
8854
8855
8856
8857
8858
8859
8860
8896
8897
8898
8900
8901
8902
8903
8904
8906
8907
8908
8909
8910
8911
8912
8913
8914
8915
8916
8918
8919
8920
8921
8922
8923
8924
8925
8927
8928
8929
8930
8931
8934
8935
8936
8937
8938
8939
8940
8941
8942
8943
8944
8945
8946
8947
8948
8950
8951
8952
8953
8954
8955
8956
8957
8958
8962
8963
8964
8965
8966
8967
8968
8969
8970
8971
8972
8973
8974
8975
8977
8978
8980
8981
8982
8983
8984
8985
8986
8987
8988
8989
8990
8991
8992
8994
8995
8996
8997
8999
9000
9002
9003
9007
9008
9010
9011
9013
9014
9016
9017
9019
9020
9035
9036
9044
9046
9047
9048
9049
9050
9051
9052
9053
9054
9055
9056
9057
9058
9059
9060
9061
9062
9063
9064
9065
9066
9070
9071
9072
9073
9074
9075
9076
9077
9078
9079
9080
9081
9082
9083
9084
9085
9086
9087
9088
9089
9090
9095
9096
9097
9098
9099
9100
9101
9102
9103
9104
9105
9106
9107
9108
9109
9110
9111
9112
9117
9118
9119
9120
9121
9122
9123
9125
9126
9127
9128
9129
9132
9137
9138
9139
9140
9141
9142
9143
9144
9161
9162
9163
9164
9165
9166
9167
9168
9169
9170
9171
9172
9175
9176
9177
9178
9179
9180
9243
9244
9245
9246
10202
10213
10214
10254
10255
10256
10257
10278
10279
10280
10281
10282
10283
10286
10287
10288
10289
10290
10291
10292
10293
10295
10298
10299
10300
10301
10303
10305
10307
10424
10425
10528
10529
10540
10675
)


763
(
1
1110
1111
1112
1113
1114
1115
1116
1117
1130
1131
1132
1133
1134
1135
1136
1137
1138
1139
1140
1141
1142
1143
1152
1153
1154
1157
1158
1468
1470
1476
1518
1541
1579
1582
1583
1584
1585
1586
1587
1590
1591
1593
1859
1860
1861
1862
1863
1864
1865
1866
1867
1868
1869
1880
1881
1882
1883
1885
1886
1901
2087
2088
2089
2091
2092
2093
2105
2106
2107
2112
2117
2120
2217
3081
3082
3083
3084
3085
3086
3103
3105
3111
3391
3392
3393
3394
3447
3448
3450
3451
3452
3453
3454
3455
3456
3457
3458
3459
3460
3461
3462
3463
3464
3465
3466
3467
3468
3469
3470
3471
3472
3473
3474
3475
3476
3477
3478
3479
3480
3481
3482
3483
3484
3485
3486
3487
3488
3489
3490
3491
3492
3493
3494
3495
3496
3497
3498
3499
3500
3501
3502
3503
3504
3505
3506
3507
3508
3509
3510
3511
3512
3513
3514
3515
3516
3517
3518
3519
3520
3521
3522
3523
3524
3525
3554
3609
3610
3611
3613
3614
3617
3618
3619
3620
3621
3623
3624
3626
3629
3631
3632
3633
3634
3640
3641
3674
3676
3680
3681
3682
3701
3703
3705
3710
3806
3807
3808
3809
3810
3811
3818
3819
3820
3829
3831
3832
3833
3834
3835
3836
3837
3838
3839
3841
3842
3843
3844
3846
3850
3854
3855
3856
3857
3858
3859
3918
3927
3928
3929
3930
3931
3932
3949
3951
3952
3953
3954
3955
3966
3968
4029
4030
4031
4032
4034
4036
4039
4041
4043
4044
4049
4050
4051
4052
4053
4066
4067
4068
4070
4072
4073
4074
4075
4076
4087
4089
4092
4093
4094
4095
4096
4097
4099
4101
4104
4105
4106
4107
4110
4112
4116
4119
4126
4129
4130
4142
4153
4155
4156
4157
4161
4163
4207
4208
4209
4210
4215
4216
4217
4218
4219
4220
4221
4222
4223
4224
4225
4226
4227
4228
4258
4259
4260
4261
4262
4263
4268
4274
4275
4276
4277
4288
4290
4292
4293
4294
4295
4296
4297
4299
4348
4361
4364
4365
4366
4367
4368
4369
4370
4371
4372
4373
4374
4375
4376
4377
4378
4379
4380
4381
4382
4383
4384
4385
4386
4387
4388
4409
4412
4421
4422
4423
4424
4425
4426
4427
4428
4450
4457
4515
4516
4517
4518
4531
4532
4537
4539
4595
4596
4597
4598
4599
4600
4601
4602
4642
4711
4713
4714
4717
4802
4803
4805
4806
4807
4810
4811
4813
4814
4815
4817
4818
4824
4825
4826
4827
4828
4829
4830
4831
4832
4843
4848
4849
4850
4851
4852
4853
4854
4855
4856
4857
4858
4859
4869
4878
4879
4880
4881
4882
4883
4884
4885
4886
4887
4888
4889
4890
4891
4913
4921
4931
4932
4934
4939
4940
4942
4968
4969
4977
4978
5052
5053
5055
5056
5057
5058
5059
5076
5089
5090
5091
5127
5155
5156
5157
5158
5159
5160
5161
5162
5163
5164
5165
5166
5167
5168
5169
5170
5171
5173
5174
5175
5176
5177
5178
5179
5180
5181
5182
5183
5184
5185
5186
5187
5188
5189
5190
5191
5192
5194
5195
5196
5197
5198
5199
5200
5201
5202
5203
5204
5205
5206
5207
5210
5211
5212
5213
5214
5215
5216
5217
5220
5221
5222
5223
5224
5225
5226
5227
5228
5229
5551
5552
5553
5555
5557
5561
5562
5563
5564
5565
5573
5574
5575
5576
5577
5578
5579
5580
5581
5582
5596
5610
5611
5613
5614
5615
5616
5617
5622
5623
5625
5654
5655
5680
5682
5683
5684
5685
5686
5689
5690
5691
5693
5694
5695
5696
5697
5700
5701
5702
5773
5802
5803
5804
5805
5806
5807
5808
5810
5812
5813
5814
5815
5824
5825
5826
5827
5828
5850
5872
5873
5874
5875
5876
5877
5878
5879
5880
5889
5890
5891
5892
5894
5962
6039
6041
6042
6043
6044
6046
6047
6048
6049
6050
6051
6052
8289
8290
8291
8317
8320
8323
8324
8325
8326
8327
8328
8329
8330
8331
8332
8333
8334
8335
8336
8337
8338
8339
8340
8341
8342
8343
8344
8345
8346
8347
8348
8349
8350
8351
8352
8353
8354
8355
8356
8357
8358
8359
8360
8361
8362
8363
8364
8365
8366
8367
8368
8369
8370
8371
8372
8373
8374
8375
8376
8377
8378
8379
8380
8381
8382
8383
8384
8385
8517
8518
8519
8686
8687
8688
8689
8690
8691
8695
8698
8699
8700
8703
8704
8710
8713
8714
8746
8748
8753
8754
8756
8757
8762
8763
8771
8772
8773
8778
8813
8814
8815
8817
8818
8819
8820
8821
8841
8842
8843
8844
8845
8846
8847
8896
8898
8900
8901
8903
8904
8906
8907
8911
8954
8980
8981
8982
8983
8984
8994
8995
8996
8997
9035
9104
)


611
(
1
17
1110
1111
1112
1113
1114
1115
1116
1117
1130
1131
1132
1133
1134
1135
1136
1137
1138
1139
1140
1141
1143
1152
1153
1154
1155
1156
1157
1158
1159
1163
1164
1167
1425
1426
1427
1428
1470
1518
1525
1526
1562
1582
1583
1584
1585
1590