/*--------------------------------*- C++ -*----------------------------------*\
  =========                 |
  \\      /  F ield         | OpenFOAM: The Open Source CFD Toolbox
   \\    /   O peration     | Website:  https://openfoam.org
    \\  /    A nd           | Version:  8
     \\/     M anipulation  |
\*---------------------------------------------------------------------------*/
/*   Windows 32 and 64 bit porting by blueCAPE: http://www.bluecape.com.pt   *\
|  Based on Windows porting (2.0.x v4) by Symscape: http://www.symscape.com   |
\*---------------------------------------------------------------------------*/
FoamFile
{
    version     2.0;
    format      ascii;
    class       scalarListList;
    location    "constant/vegetation";
    object      kcLAIboundary;
}
// * * * * * * * * * * * * * * * * * * * * * * * * * * * * * * * * * * * * * //


5
(

183
(
0
0
0.00019180838
0.13627028
0.81680046
0
0.0055738172
0
0.38573626
0
0
0
0.04112975
1.7522734
1.626059
1.109839
2.5718112
1.9793893
0
0.72159708
0
0.040745097
0.88255705
0
0
1.959513
0.15859567
1.7098553
0.068249342
0.28473508
0
2.7138114
1.6318677
2.7459913
1.1516462
1.3173988
1.9149634
0.2962277
0.097451606
2.3707255
0.11410567
0.19353088
0.90082525
0.50684711
1.4370009
2.913841
0.098037074
2.8230747
0
1.2837756
2.1587049
1.3617768
1.0036061
1.0042117
0.00010119678
1.6758665
0
0
1000
1000
1000
1000
1000
1000
1000
1000
1000
1000
1000
1000
1000
1000
1000
1000
1000
1000
1000
1000
1000
1000
1000
1000
1000
1000
1000
1000
1000
1000
1000
1000
1000
1000
1000
1000
1000
1000
1000
1000
1000
1000
1000
1000
1000
1000
1000
1000
1000
1000
1000
1000
1000
1000
1000
1000
1000
1000
1000
1000
1000
1000
1000
1000
1000
1000
1000
1000
1000
1000
1000
1000
1000
1000
1000
1000
1000
1000
1000
1000
1000
1000
1000
1000
1000
1000
1000
1000
1000
1000
1000
1000
1000
1000
1000
1000
1000
1000
1000
1000
1000
1000
1000
1000
1000
1000
1000
1000
1000
1000
0.24305235
0.24406676
0.98339005
0.35562511
0.34314993
0.15647598
2.0761871
0.74279169
0.94551996
1.409419
1.0709265
0.27682564
0.4990288
0.51018127
0.400399
)


183
(
0
0
0.039371862
1.4346542
0.28933857
0
0.011503701
1000
0.15222603
0
0
0
0.011469348
3.1096732
1.7779996
0.780506
1.2729215
1.9141919
0
0.92196474
0
0.040618928
1.0900895
0
0
1.6344774
1.7929191
0.29765565
0.017519383
0.43012909
0
2.801929
2.8543386
3.233234
1.6638139
2.3576321
1.1495862
0.37377914
0.042870544
1.4390821
0.052657888
0.095822524
2.2938852
1.1083443
0.70483917
3.0778853
1.0770486
2.1477804
0.0057838803
0.79005456
2.6862436
0.39296912
1.1402921
0.37955728
0
0.33221037
0
0
1000
1000
1000
1000
1000
1000
1000
1000
1000
1000
1000
1000
1000
1000
1000
1000
1000
1000
1000
1000
1000
1000
1000
1000
1000
1000
1000
1000
1000
1000
1000
1000
1000
1000
1000
1000
1000
1000
1000
1000
1000
1000
1000
1000
1000
1000
1000
1000
1000
1000
1000
1000
1000
1000
1000
1000
1000
1000
1000
1000
1000
1000
1000
1000
1000
1000
1000
1000
1000
1000
1000
1000
1000
1000
1000
1000
1000
1000
1000
1000
1000
1000
1000
1000
1000
1000
1000
1000
1000
1000
1000
1000
1000
1000
1000
1000
1000
1000
1000
1000
1000
1000
1000
1000
1000
1000
1000
1000
1000
1000
0.15166228
0.25083643
0.92306595
0.35206632
0.52819459
0.19445541
2.7599583
0.79702166
1.4839001
0.65259643
0.69564287
0.36136005
0.41262919
0.33585735
0.35794947
)


183
(
0
0
0.34120418
2.822003
0.1278605
0
0.0011283171
1000
0.089516035
0
0
0
0.023144148
3.1396995
1.9261349
0.4353967
1.9533088
1.6427938
0
0.99802519
0.00011812606
0.0039613069
1.4407771
0
0.0035075138
0.99847053
2.856428
2.4590878
0.0044108341
0.25780402
0
2.3370848
3.0055243
1000
2.0229149
2.7406435
0.90078263
2.1169283
0.3300985
1.378476
0.0074615468
0.29671901
2.9230274
1.7106177
0.45932999
2.602734
2.9032031
1.5985015
0.0098300178
0.48055283
2.7429696
1.4805603
0.81478033
0.51343597
0
2.3700881
0
0
1000
1000
1000
1000
1000
1000
1000
1000
1000
1000
1000
1000
1000
1000
1000
1000
1000
1000
1000
1000
1000
1000
1000
1000
1000
1000
1000
1000
1000
1000
1000
1000
1000
1000
1000
1000
1000
1000
1000
1000
1000
1000
1000
1000
1000
1000
1000
1000
1000
1000
1000
1000
1000
1000
1000
1000
1000
1000
1000
1000
1000
1000
1000
1000
1000
1000
1000
1000
1000
1000
1000
1000
1000
1000
1000
1000
1000
1000
1000
1000
1000
1000
1000
1000
1000
1000
1000
1000
1000
1000
1000
1000
1000
1000
1000
1000
1000
1000
1000
1000
1000
1000
1000
1000
1000
1000
1000
1000
1000
1000
0.19459332
0.27699368
0.62576924
0.25590699
0.77144899
0.17281169
2.9232312
1.0588063
1.9974535
0.82088024
0.48685173
0.45691954
0.33623211
0.25822688
0.2732695
)


183
(
0
0
1.0615684
1000
0.06746585
0
0
1000
0.046488676
0
0
0
1000
1000
1.5123948
1.6005164
1000
1.265081
0
0.65180358
0.00041345099
0.24605299
1.2835642
0
0.0017955461
0.79585277
1000
1000
0.012952679
0.13312865
0
1000
1000
1000
1.7773423
1000
2.9918803
1000
1.668388
1000
0.03894733
0.43793901
1000
1.7146022
1000
1000
1000
3.3454925
0.00013241708
0.34058866
1000
2.9708145
0.51174159
2.1664267
0
1000
0
0
1000
1000
1000
1000
1000
1000
1000
1000
1000
1000
1000
1000
1000
1000
1000
1000
1000
1000
1000
1000
1000
1000
1000
1000
1000
1000
1000
1000
1000
1000
1000
1000
1000
1000
1000
1000
1000
1000
1000
1000
1000
1000
1000
1000
1000
1000
1000
1000
1000
1000
1000
1000
1000
1000
1000
1000
1000
1000
1000
1000
1000
1000
1000
1000
1000
1000
1000
1000
1000
1000
1000
1000
1000
1000
1000
1000
1000
1000
1000
1000
1000
1000
1000
1000
1000
1000
1000
1000
1000
1000
1000
1000
1000
1000
1000
1000
1000
1000
1000
1000
1000
1000
1000
1000
1000
1000
1000
1000
1000
1000
1000
0.29021427
0.48420104
0.19315538
1.2368985
0.27860465
1000
1.519335
2.1869469
2.3039329
1.5794764
0.59448311
0.28641102
0.26141463
0.29205114
)


183
(
0
0
1.4570815
1000
1000
0
0.01363306
1000
0.058568971
0
0
0
1000
1000
1000
1000
1000
1000
0
0.49340433
0.086119938
1.288239
1000
0
0.048713195
1000
1000
1000
0.012417319
0.087563796
0
1000
1000
1000
1000
1000
1000
1000
1000
1000
0.030976675
0.3617927
1000
1000
1000
1000
1000
1000
0.021065826
1000
1000
1000
1000
1000
0
1000
0
0
1000
1000
1000
1000
1000
1000
1000
1000
1000
1000
1000
1000
1000
1000
1000
1000
1000
1000
1000
1000
1000
1000
1000
1000
1000
1000
1000
1000
1000
1000
1000
1000
1000
1000
1000
1000
1000
1000
1000
1000
1000
1000
1000
1000
1000
1000
1000
1000
1000
1000
1000
1000
1000
1000
1000
1000
1000
1000
1000
1000
1000
1000
1000
1000
1000
1000
1000
1000
1000
1000
1000
1000
1000
1000
1000
1000
1000
1000
1000
1000
1000
1000
1000
1000
1000
1000
1000
1000
1000
1000
1000
1000
1000
1000
1000
1000
1000
1000
1000
1000
1000
1000
1000
1000
1000
1000
1000
1000
1000
1000
1000
0.26221384
0.3599561
1000
1000
0.30743736
1000
1.8341408
1000
1000
1000
0.80984986
0.30073193
1.1024596
0.64978781
)

)


// ************************************************************************* //
