/*--------------------------------*- C++ -*----------------------------------*\
  =========                 |
  \\      /  F ield         | OpenFOAM: The Open Source CFD Toolbox
   \\    /   O peration     | Website:  https://openfoam.org
    \\  /    A nd           | Version:  8
     \\/     M anipulation  |
\*---------------------------------------------------------------------------*/
/*   Windows 32 and 64 bit porting by blueCAPE: http://www.bluecape.com.pt   *\
|  Based on Windows porting (2.0.x v4) by Symscape: http://www.symscape.com   |
\*---------------------------------------------------------------------------*/
FoamFile
{
    version     2.0;
    format      ascii;
    class       scalarListList;
    location    "constant/vegetation";
    object      solarLoadFineFaces;
}
// * * * * * * * * * * * * * * * * * * * * * * * * * * * * * * * * * * * * * //


5
(

1103
(
717.08284
717.08284
717.08284
717.08284
717.08284
717.08284
717.08284
717.08284
717.08284
717.08284
717.08284
717.08284
717.08284
717.08284
717.08284
717.08284
717.08284
141.05253
717.08284
54.783013
717.08284
717.08284
99.067563
54.783013
717.08284
717.08284
717.08284
348.48469
717.08284
717.08284
717.08284
717.08284
717.08284
296.67413
717.08284
717.08284
717.08284
717.08284
717.08284
717.08284
101.05636
717.08284
717.08284
717.08284
717.08284
129.71452
717.08284
717.08284
717.08284
717.08284
717.08284
717.08284
47.530897
140.23557
46.025706
717.08284
192.05707
47.530897
105.66017
717.08284
717.08284
717.08284
717.08284
105.66017
717.08284
101.05636
66.98481
105.66017
539.3994
717.08284
717.08284
717.08284
192.05707
717.08284
717.08284
170.40713
717.08284
717.08284
717.08284
717.08284
124.32735
140.23557
717.08284
38.913856
141.05253
141.05253
141.05253
717.08284
717.08284
717.08284
99.067563
99.067563
99.067563
54.783013
42.61118
236.35913
236.35913
236.35913
717.08284
717.08284
717.08284
348.48469
717.08284
717.08284
717.08284
717.08284
717.08284
717.08284
717.08284
717.08284
46.025706
101.05636
198.62443
198.62443
198.62443
101.05636
170.40713
170.40713
717.08284
717.08284
38.913856
38.913856
47.530897
47.530897
82.804836
38.913856
66.98481
66.98481
183.72031
47.530897
262.85046
99.067563
101.05636
42.61118
42.61118
66.98481
42.61118
105.66017
42.61118
42.61118
717.08284
717.08284
262.85046
717.08284
717.08284
717.08284
105.66017
124.32735
717.08284
717.08284
717.08284
717.08284
717.08284
717.08284
717.08284
717.08284
717.08284
717.08284
717.08284
717.08284
717.08284
717.08284
717.08284
717.08284
717.08284
717.08284
717.08284
717.08284
717.08284
717.08284
717.08284
717.08284
717.08284
717.08284
717.08284
134.19915
134.19915
54.783013
717.08284
717.08284
717.08284
717.08284
717.08284
717.08284
717.08284
717.08284
717.08284
717.08284
717.08284
717.08284
717.08284
717.08284
717.08284
717.08284
717.08284
717.08284
129.71452
129.71452
717.08284
717.08284
717.08284
717.08284
717.08284
717.08284
140.23557
82.804836
82.804836
46.025706
46.025706
46.025706
226.68132
226.68132
226.68132
82.804836
82.804836
192.05707
717.08284
717.08284
717.08284
717.08284
717.08284
717.08284
717.08284
717.08284
717.08284
717.08284
717.08284
717.08284
717.08284
717.08284
717.08284
192.05707
717.08284
717.08284
140.23557
140.23557
140.23557
717.08284
717.08284
717.08284
46.025706
717.08284
717.08284
717.08284
717.08284
717.08284
717.08284
717.08284
717.08284
717.08284
717.08284
717.08284
717.08284
717.08284
717.08284
717.08284
717.08284
717.08284
717.08284
0
0
0
0
0
0
0
0
0
0
0
0
0
0
0
0
0
0
0
0
0
0
0
0
0
0
0
0
0
0
0
0
0
0
0
0
0
0
0
0
0
0
0
0
0
0
0
0
0
0
0
0
0
0
0
0
0
0
0
0
0
0
0
0
0
0
0
0
0
0
0
0
0
0
0
0
0
0
0
0
0
0
0
0
0
0
0
0
0
0
0
0
0
0
0
0
0
0
0
0
0
0
0
0
0
0
0
0
0
0
431.78447
561.17786
459.55803
318.54481
0
116.79832
387.1285
486.84631
183.4565
104.62997
0
738.27478
309.28831
0
0
0
0
0
0
0
0
0
0
0
0
40.628101
0
332.02437
191.09924
333.32582
187.89459
349.58766
0
101.9853
257.33377
0
145.15643
0
0
91.791911
0
350.65706
558.81039
513.07015
709.35358
481.52323
709.68391
653.78592
428.91302
454.23982
637.35183
40.994993
267.36256
162.46522
292.42092
122.58533
342.69865
186.97675
186.96608
186.95455
186.95799
54.38964
144.14327
0
0
44.352849
187.63971
147.37098
44.358807
186.95379
40.615637
0
0
0
118.46241
174.94375
241.2322
87.239162
233.58272
0
157.56986
118.64646
303.91079
278.65763
108.7133
279.04829
0
139.76649
139.7647
153.25478
0
0
0
0
0
0
0
0
0
49.001659
306.77114
210.36928
403.63234
0
0
0
0
0
367.05151
87.25201
494.47035
175.72412
252.22149
182.05423
174.1158
195.66802
252.22327
252.22383
0
0
0
0
0
0
0
0
0
651.24893
655.7929
728.73438
710.28196
421.75778
293.05407
436.16714
0
431.77214
281.92961
306.81933
313.07492
446.18123
443.85652
486.12628
0
0
0
0
0
0
0
0
0
0
0
0
0
0
0
0
0
0
0
0
0
0
0
0
0
0
0
0
0
0
0
0
0
0
0
0
0
0
98.589638
95.660287
0
0
40.620133
0
0
0
0
0
0
28.491951
0
0
0
76.342972
101.9762
284.86394
253.03624
107.68063
60.750792
82.541874
100.44589
60.742984
94.944226
145.49605
117.0237
116.07781
0
0
0
0
0
0
0
0
253.91316
442.28068
425.48967
414.11368
603.10147
548.49772
593.92291
414.58202
294.6
287.84213
474.00613
483.30917
627.55888
610.38578
663.64056
541.93011
666.14388
697.78402
647.90274
676.25686
646.97634
754.20675
645.91737
636.6376
631.32222
712.3346
711.79072
708.69744
412.61291
443.39747
611.78836
427.71531
587.09262
18.931074
147.35254
117.84858
0
0
0
117.38562
44.347121
187.16049
331.58798
226.6412
118.84952
297.66456
120.30426
183.55706
267.36085
263.1926
186.96066
186.96084
98.606006
86.522149
40.608252
232.72296
244.93532
0
0
0
0
0
0
130.45283
0
119.21699
319.67585
377.84018
266.90276
364.86938
167.07901
172.6472
26.31361
105.06543
232.78596
172.97727
160.09185
0
0
0
0
161.36273
10.528474
0
0
0
0
0
0
0
0
0
132.4724
0
0
160.07739
299.53707
306.41859
304.26019
418.15637
404.62136
289.34177
399.15462
444.97666
576.82698
12.167647
152.54212
35.550134
0
98.583054
352.18605
125.88487
129.53449
360.15808
252.5494
351.70713
410.90701
232.17399
201.20428
158.26707
318.34351
305.85757
287.97779
394.59443
532.58193
388.92651
407.60493
28.486592
222.3218
266.32529
21.270173
17.283034
92.343077
378.4328
103.75009
98.836829
89.692046
112.11899
427.47713
426.70858
467.5121
365.48348
356.91035
472.84839
506.73768
513.17805
531.53379
286.09607
0
0
0
0
0
0
0
372.14471
516.05765
333.33153
386.96345
370.60064
236.79331
28.498143
0
11.57077
10.718463
0
318.49908
0
0
0
748.59318
37.07938
37.243888
40.617223
308.86306
267.35206
292.39687
237.96128
245.0548
246.56547
239.8725
245.10659
53.87859
40.621312
40.618268
0
172.65934
0
157.56652
43.247643
157.56618
186.11432
303.90291
303.90718
157.5669
539.79064
655.46543
571.60539
424.48546
477.18
447.37199
4.4214747
15.557028
0
128.99285
0
0
281.62101
0
0
60.11592
389.51916
192.9937
206.57199
416.23522
414.10776
517.93993
471.66347
446.39299
564.06356
236.99073
385.05337
247.36248
453.9303
387.84411
530.54094
447.97647
431.84744
388.67951
258.27692
231.44116
197.20313
0
0
0
0
346.97396
345.04537
381.00415
56.824129
37.283382
0
32.500618
154.20053
435.05961
533.14764
456.51184
0
0
171.87902
28.490558
96.514824
0
0
0
533.4793
672.35844
576.0144
686.73652
696.38849
702.42556
672.53658
0
485.80788
0
0
0
0
0
424.81769
442.99393
450.40161
592.62102
457.51767
582.56029
259.86199
286.09872
0
0
0
0
0
0
0
0
0
0
0
0
0
0
0
0
0
0
0
0
0
0
0
0
0
0
0
0
0
0
0
0
0
0
0
0
0
0
0
0
0
28.494342
28.487408
0
0
0
72.850558
369.44175
28.818444
127.32013
0
0
28.817576
0
0
0
0
0
0
0
245.01813
258.7624
0
0
0
0
0
236.92486
443.01757
412.87205
275.19786
265.47908
396.01307
352.10014
539.15558
318.53433
507.83256
586.34968
578.88399
533.56565
557.73609
487.94707
524.57637
745.81091
740.07771
680.71049
666.38348
722.38877
711.14254
698.59335
612.85505
577.04358
117.84383
0
0
0
0
54.18938
117.67207
329.00433
368.07505
350.92339
345.78301
325.72546
333.32695
250.89407
388.6759
263.24217
320.91427
455.21174
282.10656
247.7726
186.95617
110.98242
104.01422
244.92693
52.805857
232.4901
0
0
0
0
0
0
44.347381
44.352273
17.635595
12.587999
8.1003042
0.4705251
48.371149
112.92818
197.19624
183.49106
430.71863
319.6681
363.22905
215.94395
179.25791
39.108478
81.534827
26.317108
26.314211
102.25977
172.65368
246.27188
233.58523
0
0
29.110568
0
0
0
0
0
0
24.249317
151.33833
167.55315
173.98831
299.4402
306.41912
284.36486
303.89643
172.81993
167.27146
413.83008
281.929
483.2016
468.7795
420.99929
421.02503
431.15505
287.27391
303.9079
286.9994
147.46243
132.4651
145.21012
278.81439
278.81436
278.80116
169.43375
140.37795
154.64653
194.78638
129.72998
124.17082
9.8830389
139.7642
0
0
210.13667
0
0
0
0
534.73102
386.11673
369.77616
561.80714
644.57073
563.31059
116.71344
132.06941
139.76514
586.23709
578.82049
635.39273
43.354159
204.6237
21.438094
20.138872
0
0
0
0
0
86.472662
0
0
0
0
517.83427
427.49288
423.81734
584.48604
665.26712
584.48991
574.55472
672.67884
570.73682
401.8533
263.23893
264.34062
286.09185
255.84004
0
0
427.97406
0
)


1103
(
585.76158
585.76158
585.76158
585.76158
585.76158
585.76158
585.76158
585.76158
585.76158
585.76158
585.76158
585.76158
585.76158
585.76158
585.76158
585.76158
26.134065
98.979549
585.76158
585.76158
139.52707
585.76158
86.376958
164.02049
585.76158
585.76158
585.76158
232.97895
585.76158
585.76158
585.76158
585.76158
585.76158
196.92508
585.76158
585.76158
585.76158
585.76158
585.76158
26.134065
114.2553
585.76158
585.76158
585.76158
97.513785
585.76158
585.76158
585.76158
585.76158
585.76158
585.76158
585.76158
35.551553
33.736295
23.096448
110.95214
55.438858
35.551553
585.76158
585.76158
585.76158
585.76158
585.76158
585.76158
585.76158
114.2553
138.91063
185.55042
585.76158
585.76158
585.76158
59.087988
55.438858
193.36286
585.76158
585.76158
585.76158
585.76158
585.76158
585.76158
26.134065
33.736295
59.087988
26.978157
98.979549
98.979549
98.979549
139.52707
585.76158
585.76158
86.376958
86.376958
86.376958
164.02049
68.38356
585.76158
268.3808
585.76158
585.76158
585.76158
585.76158
232.97895
585.76158
585.76158
585.76158
585.76158
585.76158
585.76158
585.76158
193.36286
23.096448
114.2553
265.83034
585.76158
265.83034
114.2553
585.76158
289.47637
585.76158
585.76158
26.978157
26.978157
35.551553
35.551553
39.91169
26.978157
585.76158
585.76158
585.76158
35.551553
187.28298
86.376958
114.2553
68.38356
68.38356
138.91063
68.38356
585.76158
68.38356
68.38356
585.76158
585.76158
187.28298
585.76158
585.76158
585.76158
585.76158
26.134065
585.76158
585.76158
585.76158
585.76158
585.76158
585.76158
585.76158
585.76158
585.76158
585.76158
585.76158
585.76158
585.76158
585.76158
585.76158
0
0
585.76158
585.76158
585.76158
585.76158
585.76158
585.76158
585.76158
585.76158
585.76158
585.76158
585.76158
585.76158
585.76158
585.76158
585.76158
585.76158
585.76158
585.76158
585.76158
585.76158
585.76158
585.76158
585.76158
585.76158
196.92508
585.76158
585.76158
585.76158
199.50998
97.513785
97.513785
585.76158
585.76158
585.76158
585.76158
585.76158
585.76158
585.76158
585.76158
33.736295
39.91169
39.91169
23.096448
23.096448
23.096448
110.95214
110.95214
110.95214
39.91169
39.91169
55.438858
585.76158
585.76158
585.76158
585.76158
585.76158
585.76158
585.76158
585.76158
585.76158
585.76158
585.76158
585.76158
585.76158
585.76158
585.76158
55.438858
59.087988
59.087988
33.736295
33.736295
33.736295
196.92508
585.76158
585.76158
23.096448
585.76158
585.76158
585.76158
585.76158
585.76158
585.76158
585.76158
585.76158
585.76158
585.76158
585.76158
585.76158
585.76158
585.76158
585.76158
585.76158
585.76158
585.76158
0
0
0
0
0
0
0
0
0
0
0
0
0
0
0
0
0
0
0
0
0
0
0
0
0
0
0
0
0
0
0
0
0
0
0
0
0
0
0
0
0
0
0
0
0
0
0
0
0
0
0
0
0
0
0
0
0
0
0
0
0
0
0
0
0
0
0
0
0
0
0
0
0
0
0
0
0
0
0
0
0
0
0
0
0
0
0
0
0
0
0
0
0
0
0
0
0
0
0
0
0
0
0
0
0
0
0
0
0
0
476.10801
556.54099
474.30335
366.00963
66.153422
180.99258
448.76582
530.21956
0
0
0
643.15659
266.53377
0
0
0
0
0
0
0
0
0
65.526586
160.00815
0
190.47014
0
421.39518
313.38339
422.42747
310.83275
433.67786
0
0
67.918556
0
0
0
0
38.402728
0
150.32462
360.1173
320.4568
619.60664
451.46331
611.30054
472.59315
297.96364
403.40432
463.81249
79.093603
372.02851
293.66683
393.00027
261.01262
429.71362
310.01648
310.00871
309.99907
310.00222
202.15397
279.18093
65.514302
148.74325
185.06119
310.60323
281.74241
185.06604
309.99814
190.45955
0
0
0
0
9.9973091
114.91264
0
107.27579
63.881476
142.3885
42.136534
261.9296
170.74384
37.839563
176.82762
0
219.82722
219.82537
231.02437
0
0
0
0
0
0
0
0
0
60.060913
350.06722
154.25951
457.99588
0
0
0
0
0
198.44915
0
535.221
0
63.955713
0
0
0
63.957443
63.958457
0
0
0
0
0
0
0
0
0
624.70866
627.78664
647.81236
629.0062
451.87712
344.93202
490.59783
0
413.39229
313.59535
313.27275
316.12319
377.87243
376.0415
414.8913
0
0
0
0
0
0
0
0
0
0
0
0
0
0
0
0
0
0
0
0
0
0
0
4.907299
51.479502
0
0
125.77701
43.261701
137.65523
0
0
0
54.62223
42.640122
55.319105
56.931865
111.96551
218.77074
221.68258
89.958668
81.077919
190.46414
0
0
0
0
0
0
0
0
0
0
0
0
92.928314
65.100018
0
0
55.566246
0
0
0
0
0
0
0
0
0
0
0
0
0
0
276.20291
387.22543
347.49763
212.69953
408.78399
346.94732
396.22183
268.73042
108.65363
102.22193
290.19598
304.61714
605.42836
598.5128
586.72889
503.12707
568.18285
557.52623
523.25436
517.17894
501.79355
635.22715
466.73344
450.7911
438.90854
603.01797
594.02076
563.93282
305.4044
293.71981
521.95167
349.77081
416.96815
177.24049
281.64555
257.19962
135.38875
76.216402
137.64452
256.69707
185.05615
310.15365
421.0535
328.69847
258.01793
396.91762
258.61912
293.51245
372.02728
371.15433
310.00382
310.00471
218.78409
214.63069
190.45471
334.0646
338.3154
0
0
0
0
0
0
229.04584
0
0
144.517
228.90415
87.796846
217.77159
0
18.870515
0
3.6914949
108.48583
225.01363
193.51259
53.07156
0
11.514903
46.802125
191.85176
22.839406
0
0
0
0
0
0
0
9.4308312
0
71.487352
0
0
193.50018
327.89989
313.03749
309.48093
350.41407
282.3623
199.10332
273.13532
376.54214
550.57951
111.99848
230.43821
0
0
218.72507
412.92038
225.67185
234.64832
442.66441
343.68494
405.1536
464.15037
327.59916
298.89081
244.28672
370.73496
352.918
330.79146
453.96855
550.71778
449.66642
442.87993
0
105.05549
340.05111
104.55537
114.78034
217.30651
439.08064
226.83654
218.87603
214.8852
230.01423
484.74468
488.13646
515.25056
424.12617
414.23183
283.97729
327.34333
347.03269
366.01921
339.35983
0
0
0
0
0
67.216889
0
449.19373
547.08056
422.4322
448.24317
438.53832
335.1729
0
0
0
0
0
125.18359
0
0
0
635.23569
82.029802
81.662412
190.46082
403.54519
372.0206
392.96547
336.16499
338.32728
330.16697
337.47934
338.37367
201.45328
190.46443
190.46194
0
18.879802
0
142.38213
43.21501
142.38644
199.35392
261.91776
261.92221
142.38524
554.71253
619.50004
555.09254
442.69637
462.11621
425.33519
120.16101
115.11152
82.640697
234.27495
101.00616
65.835571
317.3971
0
0
0
273.47051
104.7157
106.93201
315.78733
212.69361
316.69492
280.15083
250.35294
373.12372
88.571419
214.48671
81.702283
291.26326
441.23913
523.83113
456.44907
479.81163
449.46292
361.14618
340.90797
303.16643
0
21.029051
11.751297
0
182.77959
166.61169
232.1479
0
91.565166
78.775091
119.22563
209.06606
299.82107
373.6868
337.58205
0
0
0
0
0
0
0
0
556.4032
633.76767
584.88218
638.04128
633.80193
613.91366
608.33924
0
529.5484
0
0
0
0
0
444.05999
420.2434
424.59566
513.24435
430.91039
529.43629
341.00941
339.36093
0
0
0
0
0
0
0
0
0
0
0
0
0
0
0
0
0
0
0
0
0
0
0
0
0
0
44.417445
0
0
0
30.961802
0
0
0
82.350699
82.355166
86.261314
0
0
0
0
0
0
0
0
0
0
167.51613
0
0
0
0
0
0
0
0
0
0
0
0
85.598799
84.894226
0
0
0
0
0
249.13312
414.58745
406.59774
231.09551
240.65769
193.3739
151.83025
339.8396
125.32405
315.12005
574.12356
581.90486
551.4149
552.14647
471.43096
511.37009
599.78016
591.68849
519.03185
496.87548
556.71271
548.40079
557.2897
497.69921
448.84847
257.19592
147.69614
65.529016
76.089084
149.78859
201.75451
256.99269
419.33802
436.82827
434.36739
431.80277
416.01452
422.42872
342.96297
449.45892
368.82737
413.95531
507.33926
383.22778
356.91735
310.0014
229.10592
228.21218
338.30846
200.61755
332.96249
0
0
0
0
100.66274
128.22333
185.05655
185.06068
100.65965
115.07325
109.61429
125.68991
188.17919
204.82917
303.16016
285.48235
486.0787
144.50926
208.42836
84.892289
24.297297
0
0
0
0
0
18.87609
111.92655
107.27402
58.230604
46.148789
82.961663
0
0
0
0
0
0
3.0567642
102.78011
220.40264
204.81922
327.97264
313.03777
279.80239
261.91924
188.33439
149.92748
319.80093
208.48012
408.45813
361.96142
308.84169
308.86345
330.34159
210.9511
261.92411
211.22527
84.309552
71.480393
81.818491
191.02918
191.03225
191.01676
151.74723
91.735414
103.35287
70.400209
222.58772
226.62311
120.23683
219.82394
0
0
82.508673
65.52702
0
0
0
553.43975
446.11727
429.67211
426.48782
496.87695
429.16277
221.97693
236.97421
219.8263
536.95444
508.75353
554.68374
44.917701
68.515147
58.071007
0
0
0
0
0
0
0
0
0
0
0
548.82242
484.99323
486.19364
488.98582
552.68784
488.98917
450.2389
534.02123
446.67751
439.54499
340.6858
342.58429
339.35661
337.82371
83.874834
0
450.45729
83.349433
)


1103
(
536.2201
381.20624
31.897949
536.2201
536.2201
536.2201
536.2201
536.2201
536.2201
0
536.2201
536.2201
536.2201
536.2201
536.2201
536.2201
23.216082
78.13279
536.2201
76.038205
31.897949
536.2201
103.7258
76.038205
536.2201
536.2201
536.2201
197.6543
536.2201
536.2201
536.2201
536.2201
536.2201
126.94674
536.2201
536.2201
536.2201
536.2201
536.2201
23.216082
536.2201
536.2201
536.2201
536.2201
30.818548
45.853747
536.2201
536.2201
536.2201
536.2201
536.2201
536.2201
51.803614
26.549752
0
70.925485
34.601645
51.803614
536.2201
64.561381
536.2201
45.853747
64.561381
536.2201
536.2201
197.56629
536.2201
536.2201
536.2201
536.2201
536.2201
28.832906
34.601645
96.923985
536.2201
536.2201
536.2201
536.2201
536.2201
536.2201
23.216082
26.549752
28.832906
39.718247
78.13279
78.13279
78.13279
31.897949
64.561381
29.410202
103.7258
103.7258
103.7258
76.038205
108.42332
536.2201
536.2201
536.2201
536.2201
536.2201
536.2201
197.6543
536.2201
536.2201
536.2201
536.2201
536.2201
536.2201
536.2201
96.923985
0
197.56629
536.2201
536.2201
331.62071
197.56629
536.2201
536.2201
30.818548
45.853747
39.718247
39.718247
51.803614
51.803614
34.521251
39.718247
135.10722
135.10722
121.99553
51.803614
237.40425
103.7258
197.56629
108.42332
108.42332
536.2201
108.42332
536.2201
108.42332
108.42332
536.2201
536.2201
536.2201
536.2201
121.99553
536.2201
536.2201
23.216082
385.46339
64.561381
31.897949
536.2201
536.2201
536.2201
96.923985
536.2201
536.2201
536.2201
536.2201
536.2201
536.2201
536.2201
536.2201
0
0
536.2201
536.2201
536.2201
536.2201
536.2201
536.2201
536.2201
536.2201
536.2201
536.2201
50.121829
50.121829
76.038205
536.2201
536.2201
536.2201
536.2201
536.2201
536.2201
536.2201
536.2201
536.2201
536.2201
536.2201
126.94674
536.2201
536.2201
536.2201
29.410202
30.818548
30.818548
45.853747
45.853747
536.2201
536.2201
536.2201
536.2201
536.2201
536.2201
26.549752
34.521251
34.521251
0
0
0
70.925485
70.925485
70.925485
34.521251
34.521251
34.601645
385.46339
385.46339
121.99553
29.410202
50.121829
50.121829
121.99553
50.121829
29.410202
536.2201
536.2201
536.2201
536.2201
536.2201
536.2201
34.601645
28.832906
28.832906
26.549752
26.549752
26.549752
126.94674
536.2201
536.2201
0
536.2201
536.2201
536.2201
536.2201
536.2201
536.2201
536.2201
536.2201
536.2201
536.2201
536.2201
536.2201
536.2201
536.2201
536.2201
536.2201
536.2201
536.2201
0
0
0
0
0
0
0
0
0
0
0
0
0
0
0
0
0
0
0
0
0
0
0
0
0
0
0
0
0
0
0
0
0
0
0
0
0
0
0
0
0
0
0
0
0
0
0
0
0
0
0
0
0
0
0
0
0
0
0
0
0
0
0
0
0
0
0
0
0
0
0
0
0
0
0
0
0
0
0
0
0
0
0
0
0
0
0
0
0
0
0
0
0
0
0
0
0
0
0
0
0
0
0
0
0
0
0
0
0
0
561.69553
607.57066
531.52731
455.692
187.82051
317.19693
547.19011
625.53636
0
0
32.661826
629.75714
246.12172
0
0
0
0
0
0
0
0
0
225.19608
319.77097
41.990202
340.74115
66.483966
421.61729
350.94934
422.35664
349.19339
455.41994
0
0
60.534872
0
0
0
0
116.67508
0
0
224.48316
188.02796
610.50945
482.19114
593.93687
365.52171
223.07087
411.49866
364.04548
210.89807
417.32994
341.94517
432.3947
319.87824
456.17539
348.53204
348.52754
348.52037
348.523
272.49165
428.98913
225.18453
309.00651
334.62108
450.78547
431.16252
334.62547
450.15895
340.73098
114.57216
126.06517
0
0
0
5.6986684
0
0
156.75734
132.23653
0
241.66727
83.058103
0
94.657534
0
305.23131
305.22918
315.65728
0
0
0
0
0
0
0
0
0
131.53763
434.86166
132.89033
550.64573
101.47147
35.461642
53.458616
69.122625
83.680227
63.465938
0
628.87181
0
0
0
0
0
0
0
42.404623
12.220852
12.129307
0
0
0
0
0
0
669.49408
670.89955
644.6741
621.5752
520.39766
419.64677
594.626
0
432.35465
365.6711
342.3417
342.45724
348.10205
346.48404
387.04519
0
0
0
0
0
0
0
0
0
0
0
0
0
0
0
0
0
0
0
0
0
0
0
170.90832
214.88112
163.39932
164.67607
289.15385
206.42786
300.34104
43.743643
48.441265
58.215542
206.5664
197.83729
209.46924
207.1512
244.27731
342.41442
351.51703
213.53532
235.07475
340.7364
50.312957
30.787866
43.162683
18.435953
8.0944487
11.981095
0
0
0
0
0
0
44.34529
0
0
0
144.06255
0
0
0
0
0
0
0
0
0
0
0
0
0
0
336.25339
390.06022
325.99343
55.312329
278.98525
205.64595
263.46569
176.87544
25.355653
0
163.7859
184.80297
653.97849
655.10885
587.11875
530.62351
548.32012
497.5942
475.34973
436.03284
432.83169
598.61846
355.05631
332.23294
315.08001
567.06555
549.53593
492.7169
253.18916
200.81736
505.75258
328.5305
316.49771
335.89373
431.39054
409.77459
298.22191
235.27368
300.33093
409.26876
334.61616
450.28367
544.26638
449.50936
410.508
528.42702
410.75705
427.95224
506.97849
507.5294
450.16433
450.16623
342.42656
345.59934
340.72823
454.94092
451.848
11.534004
150.25982
227.89245
160.81143
125.36528
132.58285
349.08353
0
0
0.80963861
113.1862
0
102.34909
0
0
0
0
0
285.05067
232.81696
98.256467
9.8671492
12.86273
93.26241
228.30133
23.919527
0
0
0
0
0
0
3.0323963
10.439327
0
13.369597
0
0
232.80495
378.71173
342.22775
336.97711
317.86003
194.92085
129.6597
181.47135
346.50166
580.65066
202.95101
315.11748
0
0
342.3242
517.31679
330.44904
345.68386
463.23695
455.76098
503.02384
556.6476
453.28013
424.13056
355.34793
464.93041
441.13036
413.4647
550.95402
622.76982
547.33753
515.01357
0
22.512122
434.7558
232.6163
247.74231
345.49182
545.22762
354.43582
342.39384
342.97429
352.89594
590.64409
596.78771
614.88046
527.65139
515.96336
142.61983
198.13678
230.60966
252.33364
414.65516
0
0
0
0
80.182089
160.03633
24.338099
563.90561
631.85762
449.06713
546.22931
541.6638
453.23043
0
0
0
0
0
0
0
0
0
604.62639
210.73932
210.23184
243.43851
438.57785
417.32463
432.36989
454.19022
451.75512
433.02834
455.0975
451.80276
271.69358
243.44113
243.43951
46.39702
0
0
132.22676
35.535714
132.23568
221.08567
241.65056
241.65569
132.23265
624.28644
651.66951
594.79736
498.85534
490.31253
442.50651
227.11344
206.17334
182.47418
345.42473
229.68449
190.87254
392.8767
0
0
0
209.89162
48.888377
40.912101
270.79463
55.305822
170.90144
136.42956
100.16452
240.73263
15.951859
93.211924
31.399084
185.71785
541.75336
580.57841
520.83069
569.5537
547.14553
494.59204
477.99074
435.2407
176.58636
169.42475
158.86666
122.65315
49.649593
20.562277
116.85233
0
138.106
167.46474
198.79645
269.8011
203.43045
265.81217
259.31059
0
0
0
0
0
0
0
0
634.48161
666.76669
656.73189
662.178
643.99739
597.59658
612.65297
61.985406
625.14547
0
0
0
0
0
501.35825
436.13053
438.28274
490.67898
444.6736
532.26249
442.96927
414.65497
0
0
0
0
0
0
0
0
0
0
0
0
0
0
0
0
0
0
0
0
0
0
0
0
0
131.5313
210.41522
135.79433
99.176328
158.63862
196.91584
76.947585
42.169205
50.031132
211.07962
211.08464
240.59515
6.0486294
18.347006
12.355999
12.263614
0
0
0
0
0
0
6.8555262
0
0
0
0
0
0
0
0
0
0
0
0
24.775357
34.319094
0
0
0
0
0
297.83666
443.45346
454.03628
228.39828
256.04833
33.877174
5.1303878
201.7184
18.518713
182.0567
629.49904
649.80286
629.97439
611.75984
515.6407
561.65474
535.74129
525.30796
427.89747
396.59465
470.3344
465.5197
487.87379
456.39232
391.14382
409.77136
309.8146
225.19888
235.14415
311.78955
351.26763
409.56185
543.23922
540.50406
553.31291
553.39774
539.02529
545.53133
455.85882
547.14051
504.2874
541.93173
609.88352
516.18601
494.3295
450.1639
352.09186
357.10797
451.84149
350.22571
452.79981
116.30063
79.723614
42.077841
169.97097
232.0721
267.21714
334.61671
334.62059
232.06891
253.35589
237.57461
258.00606
337.30854
317.15973
435.23444
413.06912
590.64375
0
85.663124
0
0
0
0
0
0
0
0
0
0
106.44795
109.41701
128.13385
0
0
0
0
0
0
0
58.867656
280.63599
243.09291
378.94905
342.22784
294.93911
241.65924
210.84142
138.70336
260.79589
154.59087
376.75268
296.88957
233.01189
233.03276
266.71886
154.84625
241.65885
155.62681
25.693903
13.362182
22.727222
122.80087
122.80694
122.78776
140.42376
46.545204
57.115656
14.327778
337.33481
334.07207
222.08441
305.22671
0
0
7.7339106
225.1977
125.43922
46.475457
121.00129
626.56637
552.2016
534.59198
344.94441
413.92943
348.92978
331.53332
348.10792
305.23068
544.24315
493.78803
536.51059
99.631235
22.654263
111.17896
0
0
0
0
0
0
0
0
0
65.257653
1.2740518
634.03278
591.06461
595.45499
449.22461
506.63424
449.22793
380.89768
463.48985
377.11258
513.49913
439.0385
441.95848
414.65248
440.15878
174.81071
0
511.63331
175.57538
)


1103
(
411.8157
142.45235
0
142.45235
142.45235
411.8157
411.8157
411.8157
411.8157
0
411.8157
411.8157
411.8157
411.8157
411.8157
0
0
90.756593
83.101232
0
0
0
116.22116
0
83.101232
411.8157
411.8157
214.59925
411.8157
411.8157
411.8157
411.8157
321.99079
114.09275
411.8157
411.8157
384.9487
0
411.8157
0
411.8157
411.8157
411.8157
411.8157
0
0
411.8157
411.8157
411.8157
411.8157
411.8157
411.8157
0
0
0
69.632654
0
0
20.670253
0
77.648166
0
0
20.670253
83.101232
411.8157
0
20.670253
411.8157
411.8157
411.8157
0
0
74.141374
411.8157
0
384.9487
411.8157
411.8157
411.8157
0
0
0
0
90.756593
90.756593
90.756593
0
0
0
116.22116
116.22116
116.22116
0
14.513561
83.101232
83.101232
83.101232
411.8157
411.8157
411.8157
411.8157
411.8157
411.8157
77.648166
411.8157
411.8157
411.8157
411.8157
74.141374
0
185.80972
292.9457
411.8157
292.9457
185.80972
0
0
0
0
0
0
0
0
0
0
0
0
21.110307
0
246.8632
116.22116
185.80972
14.513561
14.513561
0
14.513561
20.670253
14.513561
14.513561
411.8157
411.8157
411.8157
411.8157
21.110307
47.188453
20.670253
0
77.648166
0
0
411.8157
411.8157
77.648166
74.141374
411.8157
411.8157
411.8157
411.8157
411.8157
411.8157
411.8157
0
0
0
411.8157
411.8157
411.8157
411.8157
411.8157
411.8157
411.8157
83.101232
47.188453
47.188453
0
0
0
411.8157
411.8157
411.8157
411.8157
411.8157
411.8157
47.188453
321.99079
411.8157
411.8157
411.8157
114.09275
411.8157
411.8157
411.8157
0
0
0
0
0
411.8157
411.8157
411.8157
411.8157
411.8157
411.8157
0
0
0
0
0
0
69.632654
69.632654
69.632654
0
0
0
77.648166
77.648166
21.110307
0
0
0
21.110307
0
0
411.8157
411.8157
411.8157
411.8157
411.8157
411.8157
0
0
0
0
0
0
114.09275
114.09275
74.141374
0
411.8157
411.8157
411.8157
411.8157
411.8157
411.8157
411.8157
411.8157
411.8157
411.8157
411.8157
411.8157
411.8157
411.8157
411.8157
411.8157
411.8157
411.8157
0
0
0
0
0
0
0
0
0
0
0
0
0
0
0
0
0
0
0
0
0
0
0
0
0
0
0
0
0
0
0
0
0
0
0
0
0
0
0
0
0
0
0
0
0
0
0
0
0
0
0
0
0
0
0
0
0
0
0
0
0
0
0
0
0
0
0
0
0
0
0
0
0
0
0
0
0
0
0
0
0
0
0
0
0
0
0
0
0
0
0
0
0
0
0
0
0
0
0
0
0
0
0
0
0
0
0
0
0
0
554.75493
560.78941
500.09222
359.81652
269.03876
407.42222
0
0
0
0
121.92457
523.95417
179.06634
0
0
0
0
0
0
0
0
0
34.786433
87.409581
27.381619
88.772237
0
477.77827
426.42283
478.42509
425.03964
0
0
0
0
0
0
0
0
0
0
0
62.391779
36.44362
513.67306
447.51314
491.93076
210.52329
126.3614
366.63647
217.64908
224.76293
0
426.45166
0
410.74232
0
424.38008
424.37773
424.37133
424.37407
362.68117
508.2423
34.785514
85.600837
432.37174
515.37034
509.6485
432.37505
514.79106
88.770522
8.7934873
10.469123
0
0
0
82.410784
0
0
213.17532
91.343812
0
175.38634
17.600655
0
0
0
332.59542
332.59331
340.76815
0
0
0
0
0
0
0
0
0
0
459.07547
103.52137
552.2394
12.078848
10.136388
1.0227328
0.84912735
2.3883625
0
0
624.15429
0
0
0
0
0
0
0
0
92.226167
0
0
0
0
0
0
0
612.91868
611.84732
543.81153
518.22655
501.53988
420.36447
607.87049
74.068723
376.92799
351.52143
309.0542
306.50883
257.9972
256.80016
293.44019
0
0
0
0
0
0
0
0
0
0
0
0
0
0
0
0
0
0
0
0
0
0
0
30.371902
33.753357
60.468838
29.792173
40.258637
32.998344
41.119743
31.336938
37.063287
36.93519
65.39208
64.612438
66.414277
65.099719
67.669739
403.4763
86.102461
60.374423
34.353483
88.771686
39.856363
9.1607985
16.045184
25.580219
32.769743
85.668396
0
0
0
0
0
0
0
0
0
0
0
0
0
0
0
0
0
0
0
0
0
0
0
0
0
353.271
343.58409
266.05769
0
111.21813
39.335083
96.505033
70.271576
0
0
22.995812
47.657062
605.15784
613.54685
504.43891
484.59633
452.42978
369.5649
363.95762
296.73294
307.12499
474.10936
191.79977
166.50373
148.59531
443.74375
420.60027
347.09788
174.47915
89.289751
421.1178
268.44528
177.79939
90.025132
510.5345
495.7963
40.960509
35.589927
41.118937
495.44408
432.36773
514.86551
579.33623
493.09473
496.32779
575.91477
496.52149
497.63604
562.22955
562.74268
514.79546
514.79832
403.48549
413.90412
88.770524
497.88852
487.5205
18.984491
20.724786
42.576392
21.969997
8.3492537
254.58972
419.25643
0
0
0
17.084862
0
23.93772
0
0
0
0
0
290.10849
225.05184
115.9452
9.5818456
0.65620653
112.94528
218.40486
9.8017141
0
0
0
0
0
0
0
0
0
0
0
0
225.04196
361.50949
309.07361
302.91971
229.31639
72.937189
33.386463
57.556898
256.36361
516.72855
250.64132
340.35132
0
0
403.35225
408.07242
373.78152
393.26478
0
489.40755
527.79732
557.36124
511.19066
486.60052
416.47267
492.8082
467.46705
439.21612
0
0
554.49108
500.43833
0
0
453.44794
313.93257
249.32484
308.55047
0
344.55224
403.32742
306.84677
411.70468
0
0
0
553.21396
541.9775
0
39.434723
78.270503
99.483824
416.63361
0
0
0
0
22.672723
215.91295
10.536242
0
0
0
553.84156
457.64287
406.7682
0
0
0
0
0
0
0
0
0
485.92096
295.92239
221.78871
323.47498
0
0
0
407.42816
487.33114
460.23759
407.72703
487.37379
361.63099
323.47741
323.47614
5.5856844
0
0
91.332229
0
91.34425
197.94315
175.36739
175.37242
91.339903
594.09234
582.19545
538.47424
470.61312
436.02385
383.99415
287.47248
253.50268
242.13173
393.15899
312.07227
56.701559
415.28085
0
0
0
126.70398
1.1033239
0
196.47042
0
4.0835159
0
0
74.579077
0
0
0
63.5246
562.12312
553.74949
511.63432
565.91321
554.33409
551.44398
540.79033
501.68879
24.749133
292.23137
282.20511
246.70606