/*--------------------------------*- C++ -*----------------------------------*\
  =========                 |
  \\      /  F ield         | OpenFOAM: The Open Source CFD Toolbox
   \\    /   O peration     | Website:  https://openfoam.org
    \\  /    A nd           | Version:  8
     \\/     M anipulation  |
\*---------------------------------------------------------------------------*/
/*   Windows 32 and 64 bit porting by blueCAPE: http://www.bluecape.com.pt   *\
|  Based on Windows porting (2.0.x v4) by Symscape: http://www.symscape.com   |
\*---------------------------------------------------------------------------*/
FoamFile
{
    version     2.0;
    format      ascii;
    class       scalarListList;
    location    "constant/vegetation";
    object      sunViewCoeff;
}
// * * * * * * * * * * * * * * * * * * * * * * * * * * * * * * * * * * * * * //


5
(

183
(
0
717.08284
717.08284
717.08284
717.08284
717.08284
717.08284
717.08284
717.08284
717.08284
717.08284
717.08284
717.08284
422.20535
141.05253
490.1555
54.783013
99.067563
717.08284
565.22162
717.08284
717.08284
646.02045
717.08284
717.08284
101.05636
717.08284
498.75875
717.08284
690.918
717.08284
47.530897
140.23557
46.025706
348.82893
192.05707
105.66017
717.08284
717.08284
66.98481
717.08284
717.08284
717.08284
717.08284
298.84876
38.913856
717.08284
42.61118
717.08284
417.88756
82.804836
584.02037
473.6483
717.08284
717.08284
484.35467
0
0
0
0
0
0
0
0
0
0
0
0
0
0
0
0
0
0
0
0
0
0
0
0
0
0
0
0
0
0
0
0
0
0
0
0
0
0
0
0
0
0
0
0
0
0
0
0
0
0
0
0
0
0
0
0
0
0
0
0
0
0
0
0
0
0
0
0
0
0
0
0
0
0
0
0
0
0
0
0
0
0
0
0
0
0
0
0
0
0
0
0
0
0
0
0
0
0
0
0
0
0
0
0
0
0
0
0
0
0
0
0
566.2053
575.80548
15.722882
299.66264
171.80845
422.58947
0
59.689788
23.118233
6.0559715
62.658077
532.75272
110.27231
212.43061
331.17541
)


183
(
0
585.76158
585.76158
362.28313
585.76158
585.76158
585.76158
299.29701
585.76158
585.76158
585.76158
585.76158
585.76158
26.134065
98.979549
526.46777
360.68044
86.376958
585.76158
440.4163
585.76158
585.76158
390.2286
585.76158
585.76158
114.2553
218.46872
585.76158
585.76158
585.76158
585.76158
35.551553
33.736295
23.096448
110.95214
55.438858
498.95705
585.76158
585.76158
341.67228
585.76158
585.76158
59.087988
390.22356
501.96334
26.978157
430.93053
68.38356
585.76158
449.70433
39.91169
585.76158
372.20689
585.76158
585.76158
585.76158
0
0
0
0
0
0
0
0
0
0
0
0
0
0
0
0
0
0
0
0
0
0
0
0
0
0
0
0
0
0
0
0
0
0
0
0
0
0
0
0
0
0
0
0
0
0
0
0
0
0
0
0
0
0
0
0
0
0
0
0
0
0
0
0
0
0
0
0
0
0
0
0
0
0
0
0
0
0
0
0
0
0
0
0
0
0
0
0
0
0
0
0
0
0
0
0
0
0
0
0
0
0
0
0
0
0
0
0
0
0
0
0
577.09397
523.03383
36.226897
372.25407
5.0569895
340.51537
0
50.287286
0
6.6205687
0.87452549
315.37307
191.41929
330.73168
434.39791
)


183
(
0
536.2201
505.37618
31.897949
536.2201
536.2201
536.2201
131.84685
536.2201
536.2201
536.2201
536.2201
536.2201
23.216082
78.13279
536.2201
76.038205
103.7258
536.2201
396.73211
536.2201
536.2201
330.4101
536.2201
536.2201
270.88217
30.818548
45.853747
536.2201
536.2201
536.2201
51.803614
26.549752
0
70.925485
34.601645
536.2201
64.561381
494.91687
354.21241
536.2201
536.2201
28.832906
140.81173
536.2201
39.718247
29.410202
108.42332
536.2201
488.48801
34.521251
121.99553
448.92215
536.2201
536.2201
50.121829
0
0
0
0
0
0
0
0
0
0
0
0
0
0
0
0
0
0
0
0
0
0
0
0
0
0
0
0
0
0
0
0
0
0
0
0
0
0
0
0
0
0
0
0
0
0
0
0
0
0
0
0
0
0
0
0
0
0
0
0
0
0
0
0
0
0
0
0
0
0
0
0
0
0
0
0
0
0
0
0
0
0
0
0
0
0
0
0
0
0
0
0
0
0
0
0
0
0
0
0
0
0
0
0
0
0
0
0
0
0
0
0
628.10051
541.68655
31.263104
441.90884
7.1305293
293.31978
0
37.801429
0
141.36399
129.47212
150.55263
258.57752
473.31729
562.57867
)


183
(
0
411.8157
250.29604
0
398.32477
411.8157
411.8157
0
411.8157
411.8157
411.8157
411.8157
40.986208
0
90.756593
83.101232
0
116.22116
411.8157
371.03501
411.8157
395.60986
212.56682
411.8157
411.8157
283.14969
0
0
411.8157
411.8157
411.8157
0
0
0
69.632654
0
20.670253
0
138.66139
0
411.8157
411.8157
0
74.141374
96.75623
0
0
14.513561
411.8157
361.26382
0
21.110307
363.62544
47.188453
411.8157
0
0
0
0
0
0
0
0
0
0
0
0
0
0
0
0
0
0
0
0
0
0
0
0
0
0
0
0
0
0
0
0
0
0
0
0
0
0
0
0
0
0
0
0
0
0
0
0
0
0
0
0
0
0
0
0
0
0
0
0
0
0
0
0
0
0
0
0
0
0
0
0
0
0
0
0
0
0
0
0
0
0
0
0
0
0
0
0
0
0
0
0
0
0
0
0
0
0
0
0
0
0
0
0
0
0
0
0
0
0
0
0
0
369.92522
473.12758
7.5442875
455.0195
0
189.4501
0
11.497966
0
80.441048
123.27375
1.2667216
263.9988
541.82591
607.96774
)


183
(
0
284.42858
109.78666
0
0
284.42858
284.42858
0
276.32646
284.42858
284.42858
284.42858
0
0
0
0
0
0
284.42858
238.79075
282.3122
153.82689
141.39888
284.42858
284.42858
0
0
0
284.42858
277.42302
284.42858
0
0
0
0
0
0
0
0
0
284.42858
284.42858
0
0
0
0
0
0
284.42858
80.021039
0
0
131.99616
0
284.42858
0
0
0
0
0
0
0
0
0
0
0
0
0
0
0
0
0
0
0
0
0
0
0
0
0
0
0
0
0
0
0
0
0
0
0
0
0
0
0
0
0
0
0
0
0
0
0
0
0
0
0
0
0
0
0
0
0
0
0
0
0
0
0
0
0
0
0
0
0
0
0
0
0
0
0
0
0
0
0
0
0
0
0
0
0
0
0
0
0
0
0
0
0
0
0
0
0
0
0
0
0
0
0
0
0
0
0
0
0
0
0
0
0
167.46137
376.35783
13.712334
224.05465
0
81.241531
0
0
0
30.668131
6.5169664
36.115955
242.7198
406.42137
597.48426
)

)


// ************************************************************************* //
