/*--------------------------------*- C++ -*----------------------------------*\
  =========                 |
  \\      /  F ield         | OpenFOAM: The Open Source CFD Toolbox
   \\    /   O peration     | Website:  https://openfoam.org
    \\  /    A nd           | Version:  8
     \\/     M anipulation  |
\*---------------------------------------------------------------------------*/
/*   Windows 32 and 64 bit porting by blueCAPE: http://www.bluecape.com.pt   *\
|  Based on Windows porting (2.0.x v4) by Symscape: http://www.symscape.com   |
\*---------------------------------------------------------------------------*/
FoamFile
{
    version     2.0;
    format      ascii;
    class       scalarListList;
    location    "constant/air";
    object      divqrsw;
}
// * * * * * * * * * * * * * * * * * * * * * * * * * * * * * * * * * * * * * //


5
(

6018
(
0
0
0
0
0
0
0
0
0
0
0
0
0
0
0
0
0
0
0
0
0
0
0
0
0
0
0
0
0
0
0
0
0
0
0
0
0
0
0
0
0
0
0
0
0
0
0
0
0
0
0
0
0
0
0
0
0
0
0
0
0
0
0
0
0
0
0
0
0
0
0
0
0
0
0
0
0
0
0
0
0
0
0
0
0
0
0
0
0
0
0
0
0
0
0
-117.45458
0
-135.82746
0
0
0
0
-136.05575
0
0
-152.0358
0
0
-114.97446
0
0
0
0
0
0
0
0
0
0
0
0
0
0
0
0
0
0
0
0
0
0
0
0
0
0
0
0
0
0
0
0
0
0
0
0
0
0
0
0
0
0
0
0
0
0
0
0
0
0
0
0
0
0
0
0
0
0
0
0
0
0
0
0
0
0
0
0
0
0
0
0
0
0
0
0
0
0
0
0
0
0
0
0
0
0
0
0
0
0
-122.73581
0
0
0
0
0
0
0
0
0
0
0
0
0
0
0
0
0
0
0
0
0
0
0
0
0
0
0
0
0
0
0
0
0
0
0
0
0
0
0
0
0
0
0
0
0
0
0
0
0
0
0
0
0
0
0
0
0
0
0
0
0
0
0
0
0
0
0
0
0
0
0
0
0
0
0
0
0
0
0
0
0
0
0
0
0
0
0
0
0
0
0
0
0
0
0
0
0
-100.3123
0
0
0
0
0
0
-112.57657
0
0
0
0
0
0
0
0
0
0
0
0
0
0
0
0
0
0
0
0
0
0
0
0
0
0
0
0
0
0
0
0
0
0
0
0
0
0
0
0
0
0
0
0
0
0
0
0
0
0
0
0
0
0
0
0
0
0
0
0
0
0
0
0
0
0
0
0
0
0
0
0
0
0
0
0
0
0
0
0
0
0
0
0
0
0
0
0
0
0
0
0
0
0
0
0
0
0
0
0
0
0
0
0
0
0
0
0
0
0
0
0
0
0
0
0
0
0
0
0
0
0
0
0
0
0
-119.19911
0
0
0
0
-151.44289
0
0
0
0
0
0
0
0
0
0
0
0
0
0
0
0
0
0
0
0
0
0
0
0
-124.45002
0
0
0
0
0
0
0
0
0
0
0
0
0
0
0
0
0
0
-138.86278
0
0
0
0
0
-168.98396
0
0
0
0
0
0
0
-117.97059
0
0
0
0
0
0
0
0
0
0
0
-126.10112
0
0
0
0
0
0
0
0
0
0
0
0
0
0
0
0
0
0
0
0
0
0
0
0
0
0
0
0
0
0
0
0
0
0
0
0
0
0
0
0
0
0
0
0
0
0
0
0
0
0
0
0
0
0
0
0
0
0
0
0
0
0
0
0
0
0
0
0
0
0
0
0
0
0
0
0
0
0
0
0
0
0
0
0
0
0
0
0
0
0
0
0
0
0
0
0
0
0
0
0
0
0
0
0
0
0
0
0
0
0
0
0
0
0
0
0
0
0
0
0
0
0
0
0
0
0
0
0
0
0
0
0
0
0
0
0
0
0
0
0
0
0
0
0
0
0
0
0
0
0
0
0
0
0
0
0
0
0
0
0
0
0
0
0
0
0
0
0
0
0
0
0
0
0
0
0
0
0
0
0
0
0
0
0
0
0
0
0
0
0
0
0
0
0
0
0
-133.33646
0
0
0
0
0
0
0
0
0
0
0
0
0
0
0
0
0
0
0
0
0
0
0
0
0
0
0
0
0
0
0
0
0
0
0
0
0
0
0
0
0
0
0
0
0
0
0
0
0
0
0
0
0
0
0
0
0
0
0
0
0
0
0
0
0
0
0
0
0
0
0
0
0
0
0
0
0
0
0
0
0
0
0
0
0
0
0
0
0
0
0
0
0
0
0
0
0
0
0
0
0
-128.44949
-54.221502
-94.179663
-75.934335
0
0
0
-78.109287
0
-101.73938
0
0
0
0
-144.86059
-89.848105
-114.41099
0
-78.983695
0
0
0
0
-81.976178
0
0
0
0
0
0
0
0
0
0
0
0
0
0
0
0
0
0
0
0
0
0
0
-101.51341
0
-134.62673
-147.64141
0
-186.52444
-89.660668
0
0
0
-82.484329
0
-181.04695
0
0
0
-114.7427
0
0
-177.52262
0
-108.37263
0
-159.26176
-104.88051
0
-200.95955
-88.182417
0
0
0
0
0
0
0
0
0
0
0
0
0
0
0
0
0
0
0
0
0
0
0
0
0
0
0
0
0
0
0
0
0
0
0
0
0
0
0
0
0
0
0
0
0
0
0
0
0
0
0
0
0
0
0
0
0
0
0
0
0
0
0
0
0
0
0
0
0
0
0
0
0
0
0
0
0
0
0
0
0
0
0
0
0
0
0
0
0
0
0
0
0
0
0
0
0
0
0
0
0
0
0
0
0
0
0
0
0
0
0
0
0
0
0
0
0
0
0
0
0
0
0
0
0
0
0
0
0
0
0
0
0
0
0
0
0
0
0
0
0
0
0
0
0
0
0
0
0
0
0
0
0
0
0
0
0
0
0
0
0
0
0
0
0
0
0
0
0
0
0
0
0
0
0
0
0
0
0
0
0
0
0
0
0
0
0
0
0
0
0
0
0
0
0
0
0
0
0
0
0
0
0
0
0
0
0
0
0
0
0
0
0
0
0
0
0
0
0
0
0
0
0
0
0
0
0
0
0
0
0
0
0
0
0
0
0
0
0
0
0
0
0
0
0
0
0
0
0
0
0
0
0
0
0
0
0
0
0
0
0
0
0
0
0
0
0
0
0
0
0
0
0
0
0
0
0
0
0
0
0
-94.051042
0
0
0
0
0
0
0
0
0
0
0
0
0
0
0
0
0
0
0
0
0
0
0
0
0
0
0
0
0
0
0
0
0
0
0
0
0
0
0
0
0
0
0
0
0
0
0
0
0
0
0
0
0
0
0
0
0
0
0
0
0
0
0
0
0
0
0
0
0
0
0
0
0
0
0
0
0
0
0
0
0
0
0
0
0
0
0
0
0
0
0
0
0
0
0
0
0
0
0
0
0
0
0
0
0
0
0
0
0
0
0
0
0
0
0
0
0
0
0
0
0
0
0
0
0
0
0
0
0
0
0
0
0
0
0
0
0
0
0
0
0
0
0
0
0
0
0
0
0
0
0
0
0
0
0
0
0
0
0
0
0
0
0
0
0
0
0
0
0
0
0
0
0
0
0
0
-65.921527
0
0
0
0
0
0
0
0
0
0
0
0
0
0
0
0
0
0
0
0
-46.571623
0
0
0
0
0
0
-71.024227
0
0
0
0
0
0
0
0
0
0
0
0
0
0
0
0
0
0
0
0
0
0
0
0
0
0
0
0
0
0
0
0
0
0
0
0
0
0
0
0
0
0
0
0
0
0
0
0
0
0
0
0
0
0
0
0
0
0
0
0
0
0
0
0
0
0
0
0
0
0
0
0
0
0
0
0
0
0
0
0
0
0
0
0
0
0
0
0
0
0
0
0
0
0
0
0
0
0
0
0
0
0
0
0
0
0
0
0
0
0
0
0
0
0
0
0
0
0
0
0
0
0
0
0
0
0
0
0
0
0
0
0
0
0
0
0
0
0
0
0
0
0
0
0
0
0
0
0
0
0
0
0
0
0
0
0
0
0
0
0
0
0
0
0
0
0
0
0
0
0
0
0
0
0
0
0
0
0
0
0
0
0
0
0
0
0
0
0
0
0
0
0
0
0
0
0
0
0
0
0
0
0
0
0
0
0
0
0
0
0
0
0
0
0
0
0
0
0
0
0
0
0
0
0
0
0
0
0
0
0
0
0
0
0
0
0
0
0
0
0
0
0
0
0
0
0
0
0
0
0
0
0
0
0
0
0
0
0
0
0
0
0
0
0
0
0
0
0
0
0
0
0
0
0
0
0
0
0
0
0
0
0
0
0
0
0
-116.71171
0
0
0
0
-82.54078
0
0
0
0
0
0
0
0
0
0
0
0
0
0
0
0
0
0
0
0
0
0
0
0
0
-163.98807
0
0
0
0
0
-83.535894
0
0
0
0
0
0
0
0
0
0
0
0
0
0
0
0
0
0
0
0
0
0
0
0
0
0
0
0
0
-47.974789
0
0
0
0
0
0
0
0
0
0
0
0
0
0
0
0
0
0
0
0
0
0
0
-88.269854
-105.52278
-117.59922
-93.953845
-96.144276
-106.05755
-85.709031
0
0
0
0
0
0
0
-130.76135
-106.10933
-170.06991
-120.01176
-152.64624
-142.22773
-95.044898
0
0
0
0
0
0
0
-136.13691
-120.03271
-152.35761
-138.5089
-157.31366
-122.47881
-131.5235
0
0
0
0
-69.811423
0
0
0
0
0
0
0
0
0
-131.53153
-116.38763
-173.00266
-139.80206
-162.34908
-141.0497
-108.0538
0
-104.17909
0
-91.129375
0
0
0
0
0
0
0
0
0
0
0
0
0
0
0
0
0
0
0
0
0
0
0
0
0
0
0
0
0
0
0
0
0
0
0
0
0
0
0
0
0
0
0
0
0
0
0
0
0
0
0
0
0
0
0
0
0
0
0
0
-109.23093
0
-121.63606
0
-105.75954
0
0
0
0
0
0
0
0
0
0
0
0
0
0
0
0
0
0
0
0
0
0
0
0
0
0
0
0
0
0
0
0
0
0
0
0
0
0
0
0
0
0
0
0
0
0
0
0
0
-74.8356
-86.23199
-64.595493
-52.118236
-63.52972
0
0
0
0
0
0
0
0
0
-85.128453
-102.80305
-73.488622
-69.609069
-77.459719
0
0
0
0
0
0
0
0
0
0
0
0
0
0
0
0
0
0
0
0
0
0
0
0
0
0
0
0
0
0
0
0
0
0
0
0
0
0
0
0
0
0
0
0
0
0
0
0
0
0
0
0
0
0
0
0
0
0
0
0
0
0
0
0
-128.35036
-57.221026
-91.328164
-99.889329
-122.21293
-113.1527
-65.678913
-127.85498
0
-73.68299
-164.20856
0
-109.34758
-152.13691
-86.883275
0
-95.970611
-104.26265
0
-91.753801
0
-98.303047
0
0
0
0
-54.341722
0
-109.62772
-120.27139
-67.763615
0
0
-136.67761
-68.270595
-148.87596
-103.75806
-110.12369
-117.13766
-176.4997
-118.96986
-152.60773
-42.887608
0
-78.485274
-87.704448
0
-51.229133
0
0
0
-145.7817
0
-91.89636
0
0
-76.990405
0
0
0
0
-83.899448
0
-90.78257
0
0
0
-162.47173
-112.84192
0
0
0
0
0
0
0
0
0
0
0
0
0
0
0
0
0
0
0
0
0
0
0
0
0
0
0
0
0
-140.19135
-156.9546
-193.48134
-194.45318
-139.94639
-157.44418
-141.42871
-194.06673
0
-82.029482
-168.40792
-161.73813
-103.18726
-106.48619
0
-93.424307
-189.65076
-182.85713
0
0
-99.321767
-159.30333
0
0
0
-107.29863
0
0
-179.50254
-132.90808
-78.009318
0
-148.81005
-125.30742
0
-119.58056
0
-185.13645
-178.46792
0
-121.53872
0
-177.6637
-118.70049
-193.8817
-201.4094
-188.60739
-182.98315
-129.3679
0
-53.351195
0
0
-119.5104
-59.22118
0
0
0
0
0
0
0
0
0
0
0
0
0
0
0
0
0
0
0
0
0
0
-114.6944
0
0
0
0
0
0
0
0
0
0
0
0
0
0
0
0
0
0
0
-98.89644
0
0
-126.16455
-103.40618
0
0
0
0
0
0
0
0
0
0
0
0
0
0
0
0
0
0
0
0
0
0
0
-116.43739
0
0
-88.432773
0
0
0
0
0
0
0
0
-75.684331
0
0
0
0
-77.91948
0
0
0
0
0
0
0
0
0
0
0
0
0
0
0
0
0
0
0
0
0
0
0
0
0
0
0
0
0
0
0
0
0
0
0
0
0
0
0
0
0
0
0
0
0
0
0
0
0
0
0
0
0
0
0
0
0
0
0
0
0
0
0
0
0
0
0
0
0
0
0
0
0
0
0
0
0
0
0
0
0
0
0
0
0
-141.33422
0
0
-75.604464
0
-54.600547
0
0
0
0
-61.082511
0
-83.490883
0
0
0
-162.11242
0
-96.560239
0
0
0
0
0
0
0
0
0
0
0
0
0
0
0
0
0
0
0
0
0
0
0
0
0
0
0
0
0
0
0
0
0
0
0
0
0
0
0
0
0
0
0
0
0
0
0
0
0
0
0
0
0
0
0
0
0
0
0
0
0
0
0
0
0
0
0
0
0
0
-56.150282
-62.969778
-66.734094
0
-47.931836
-76.553925
-52.649947
-72.069241
-85.134089
-67.771551
0
0
-86.590128
-69.388725
-89.950697
-118.88463
-114.37729
-115.90512
-97.163463
-105.2956
-107.63133
-70.957719
-72.746162
-59.159938
-49.627187
-76.70586
-54.736008
-66.971548
-78.278618
-88.607387
-104.33563
-73.499782
-83.725378
-97.256843
-68.885551
-66.188167
-74.374396
-71.179344
-95.670287
-59.208495
-85.580638
-89.081035
-57.015205
0
0
0
0
0
0
0
0
0
0
0
0
0
0
0
-93.835088
0
-72.260863
-84.254958
0
0
0
0
0
0
0
0
0
-96.980366
-105.98305
-83.257071
-79.381194
-98.880524
0
0
0
0
0
0
0
0
0
-62.076849
-68.887347
-100.39962
-79.004724
-88.186074
-87.490716
0
-69.80388
-64.978294
-97.593267
-74.437231
-105.82096
-67.101211
-138.20184
-158.92497
-134.29061
-129.58858
-153.41257
-122.78325
-139.19381
-113.69941
-104.33253
-111.04846
-72.005846
-131.44191
-97.216633
-82.671483
-132.25781
-106.84061
-124.34393
-129.21572
-144.71502
-114.62304
-119.40434
0
0
0
-83.494259
0
-69.719572
-57.885374
-72.222367
-78.462448
-76.254031
-107.29998
-104.05965
-97.264833
-108.79165
0
0
0
0
0
0
0
0
0
-47.146313
0
0
-43.988249
0
0
0
0
0
0
0
0
0
-77.962621
-63.760484
-66.592761
-51.47375
-60.290116
0
0
0
0
0
0
0
0
0
0
0
0
0
0
0
0
0
0
0
0
0
0
0
0
0
0
0
0
0
0
0
0
0
0
0
0
0
0
0
0
0
0
0
-103.80549
-122.8193
-94.456811
-129.01298
-98.053158
-120.55223
-129.25184
-111.86817
-97.466993
0
-79.276301
-100.56958
-88.281091
-106.99257
-142.57317
-153.55871
-113.38937
-165.34982
-167.75736
-138.73259
-131.14079
-142.96033
-142.30821
-171.1577
-133.14117
-163.58449
-127.16421
-150.91518
-117.51075
0
0
0
0
-113.12309
-107.86841
-148.18233
-157.14671
-174.87907
-182.73278
-174.47887
-147.19108
-155.36839
-101.98181
-118.43031
-84.355127
-111.09281
-105.35844
-94.754568
-126.02325
0
0
0
0
-127.14736
0
-110.50089
0
0
0
0
0
0
0
0
0
-90.210555
0
-92.881468
0
0
-78.320455
-59.719806
-65.390291
-121.83872
-95.34669
-100.30643
0
0
0
0
0
0
-78.092269
0
-111.44642
-154.1813
-133.84995
-162.18053
-132.98817
-113.33831
-136.62164
0
0
0
0
0
0
0
0
0
0
-125.1229
0
-115.95765
0
0
0
-96.474523
-158.84427
-113.7876
-132.46938
0
0
0
-86.373007
0
-82.460344
0
0
0
0
0
0
0
-107.0099
0
-106.93009
-151.41414
-171.57464
-130.18946
-126.22783
-143.27946
-110.35393
0
0
0
0
0
0
0
-88.200605
-103.31082
-86.087238
-114.90133
-138.1788
-130.8676
-117.93754
0
-69.89632
-67.481299
-99.910347
-81.009638
-105.56595
-75.526891
-145.92167
-167.85314
-175.44178
-140.60332
-172.52643
-143.43764
-153.17527
-120.50434
-120.06361
-81.763501
-145.15811
-148.83591
-117.24558
-92.573178
0
0
-62.481747
-91.716248
-57.235558
-89.194315
-64.120833
-143.70722
-168.89188
-188.45047
-178.9142
-172.47232
-159.15296
-148.18681
-99.41506
-82.568063
-87.330614
-116.79622
-114.19853
-112.98939
-126.46035
0
0
0
0
0
0
0
0
0
0
0
0
0
0
0
-68.029574
0
0
0
0
0
0
0
0
0
0
0
0
0
0
0
0
0
0
0
0
0
0
0
0
0
0
0
0
0
0
0
0
0
0
0
0
0
0
0
0
0
0
0
0
0
0
0
0
0
0
0
0
0
0
0
0
0
0
0
0
0
0
0
0
0
0
0
0
0
0
0
0
0
0
0
0
0
0
0
0
0
0
0
0
0
0
0
0
0
0
0
0
0
0
0
0
0
0
0
0
0
0
0
0
0
0
0
0
0
0
0
0
0
0
0
0
0
0
-114.12066
0
0
0
0
0
0
0
0
0
0
0
0
0
0
0
0
0
0
0
0
0
0
0
0
0
0
0
0
0
0
0
0
0
0
0
0
0
0
0
0
0
0
0
0
0
0
0
0
0
0
0
0
0
0
0
-74.037244
0
0
0
-52.382481
0
0
0
0
0
0
0
0
0
0
0
0
0
0
0
0
0
0
0
0
0
0
0
0
0
0
0
0
0
0
0
0
0
0
0
0
0
0
0
0
0
0
0
0
0
0
0
0
0
0
0
0
0
0
0
0
0
0
0
0
0
0
0
0
0
-89.407587
-53.181142
0
-61.882562
-66.958637
0
0
0
0
0
0
0
0
0
0
0
0
0
0
0
0
0
0
0
0
0
0
0
0
0
0
0
0
0
0
0
0
0
0
0
0
0
0
0
0
0
0
0
0
0
0
0
0
0
0
0
0
0
0
0
0
0
0
0
0
0
0
0
0
0
0
0
0
0
0
0
0
0
0
0
0
0
0
0
0
0
0
0
0
0
0
0
0
0
0
0
0
0
0
0
0
0
0
0
0
0
0
0
0
0
0
0
0
0
0
0
0
0
0
0
0
0
0
0
0
0
0
0
0
0
0
0
0
0
0
0
0
0
0
0
0
0
0
0
0
0
0
0
0
0
0
0
0
0
0
0
0
0
0
0
0
0
0
0
0
0
0
0
0
0
0
0
0
0
0
0
0
0
0
0
0
0
0
0
0
-118.71425
-96.775115
-97.555976
-98.886701
-121.0466
-120.06445
-99.50482
-127.16269
0
-82.019676
-117.80938
-75.631672
-105.33609
-133.76353
0
0
0
0
0
0
0
-83.672367
-90.016495
0
0
0
-95.905439
-76.533882
-175.32933
-136.09058
-157.23519
-162.29175
-167.52638
-152.37199
-181.61997
0
0
0
0
0
0
0
0
0
-99.498164
0
0
0
0
0
0
0
0
0
0
0
-113.00066
-95.936281
-88.235228
-123.68391
-148.53637
-139.48446
-126.84044
-156.10884
-140.46315
-159.90904
-162.83564
-141.86083
-142.51386
-160.25957
-113.27333
0
-80.94775
-115.12239
-129.96864
-72.534807
-94.282973
0
0
-80.023663
-82.090585
0
0
-50.630362
0
0
0
0
0
0
0
-115.75077
-98.804916
0
0
-106.30868
-106.82352
0
0
0
-73.589617
-74.107957
0
0
0
-182.33989
-154.36168
-170.44134
-178.4582
-185.12758
-192.74535
-166.39785
0
-95.042381
0
0
-120.45638
-99.492757
-102.22182
0
0
0
0
0
0
0
0
-126.65403
0
-103.70939
-129.76393
-131.91199
-108.0606
0
0
0
0
0
0
0
0
0
0
0
0
0
0
0
0
0
0
0
0
0
0
0
0
0
0
0
0
0
0
0
0
0
0
0
0
0
0
0
0
0
0
0
0
-92.318027
0
0
0
-73.191633
0
0
0
0
0
0
0
-120.02243
-97.629763
-87.252947
-103.9212
-152.85504
-121.02016
-134.83972
0
0
0
0
0
0
0
-85.735424
-118.74029
-117.9918
-97.432677
-118.75475
-89.37087
-94.991425
0
0
0
0
0
0
0
0
0
0
0
0
0
0
0
0
0
0
0
0
0
0
-81.003477
0
0
0
-81.685419
0
0
-100.37322
-71.132975
0
0
-95.55069
-74.99476
0
0
0
0
0
0
0
0
0
0
0
0
0
0
0
0
0
0
0
0
0
0
0
0
0
0
0
0
0
0
0
0
0
0
0
-114.52014
-127.03752
-145.50188
-153.38677
-135.67282
-131.3208
-110.97665
0
0
0
0
0
0
-86.107678
0
0
0
0
0
0
-73.468329
0
0
0
0
0
0
0
0
-89.51771
0
0
0
-92.023645
0
0
-126.98756
0
0
0
-118.39061
0
-82.596323
-118.65818
-68.90753
-59.519316
0
-101.99034
-95.871024
0
0
0
0
0
0
0
0
0
0
0
0
0
0
0
0
0
0
0
0
0
0
0
0
0
0
0
0
0
0
0
0
0
0
0
0
0
0
0
0
0
0
0
0
0
0
0
0
0
0
0
0
0
0
0
0
0
0
0
0
0
0
0
0
0
0
0
0
0
0
0
0
0
0
0
0
0
0
0
0
0
0
0
0
0
0
0
0
0
0
0
0
0
0
0
0
0
0
0
0
0
0
0
0
0
0
0
0
0
0
0
0
0
0
0
0
0
0
0
0
0
0
0
0
0
0
-119.26799
-113.5051
-97.452365
-97.612713
-128.38375
-112.6175
-119.84829
-75.67422
-60.411511
-78.051727
-79.609605
-60.34773
-61.939143
-78.753526
-102.70708
-72.958095
-83.623226
-83.489848
-88.638012
-101.13974
-72.23885
-84.852033
-90.013947
-110.60432
-83.274095
-92.824321
-101.744
-74.588657
-100.39329
-123.40232
-123.03645
-102.42434
-104.40051
-121.70345
-101.80921
-82.059595
-63.222037
-71.753326
-83.218355
-87.218109
-65.235899
-81.691848
-167.88262
-134.69644
-144.01538
-138.49264
-152.22291
-147.77247
-158.13622
-114.06957
0
0
0
-88.312908
0
-90.99734
-125.60738
-78.449887
-67.550612
-120.51068
-74.151909
-114.67145
-128.13252
-167.53647
-151.0531
-150.0154
-178.81303
-168.75104
-139.76401
-170.55403
-121.43794
-93.26565
0
-60.566867
-106.13622
-69.605046
-106.12589
-156.31829
-126.72707
-98.99081
-136.42351
-126.24996
-153.43587
-126.07467
-166.09126
-146.39659
-152.31088
-166.17212
-151.89916
-162.96347
-162.51721
-68.050654
-95.152273
-72.77094
-73.718287
-96.929683
-97.395035
-73.752675
0
0
0
-49.343085
0
-49.608808
0
-101.92162
-77.976577
-76.488413
-73.7136
-90.23046
-97.904493
-72.617919
-75.966083
-91.963707
-108.67605
-86.483728
-82.564151
-99.323005
-75.921982
0
0
0
0
0
0
0
-74.591877
-100.51993
-100.01979
-66.064237
-74.922061
-99.426358
-73.339043
-52.228198
0
-61.651945
0
0
-53.699699
0
0
-99.978114
-81.050337
-81.26266
-78.740147
-81.806715
-66.480673
0
0
0
0
0
0
0
0
0
0
0
0
0
0
0
0
0
0
0
0
0
0
-68.397608
0
0
0
0
0
0
-65.365046
0
0
-65.406538
-53.091812
0
0
0
0
0
0
0
0
-108.61578
-115.25195
-119.36614
-91.876167
-100.7462
-128.02024
-96.338108
-112.27837
-117.58892
-123.66304
-103.0394
-108.36311
-123.56954
-103.65213
-90.076594
-62.418297
-59.951855
-110.94386
-52.935011
-101.94562
-102.51686
-68.40563
0
0
0
0
-55.544364
0
-76.747178
-79.622371
-51.798881
0
0
-91.228798
-66.364516
-119.70521
-128.25186
-127.72072
-139.90326
-112.60024
-135.35092
-130.27947
-97.315992
-78.172103
-84.723052
-67.536376
-92.305417
-80.6302
-85.845951
-121.39662
-115.22694
-136.61535
-142.19549
-118.68053
-120.10756
-139.24773
-121.95144
-125.36975
-141.44436
-138.68937
-105.90272
-119.72887
-121.35475
-137.98925
-106.22821
-132.79899
-129.04923
-119.45258
-148.16892
-121.67188
-167.86684
-184.00735
-159.79907
-185.60621
-168.84557
-168.86126
-189.30643
-147.73214
-128.27646
-125.62842
-145.81847
-150.57682
-124.4187
-154.64532
0
-47.589789
-37.833506
-37.823359
-45.394893
-48.043169
0
0
0
0
0
0
-42.769508
0
-62.278002
-63.223194
-49.841692
-48.229265
-74.901117
-60.905902
-59.826927
-51.696831
-77.406153
-72.357303
-72.093686
-63.914112
-63.260927
-58.946091
0
0
0
0
0
0
0
-41.235342
-48.187567
-58.430196
0
-51.628433
-47.046405
0
0
0
-53.845504
0
-46.706556
0
0
0
0
0
0
0
0
0
0
0
0
0
0
0
0
0
-128.87602
-131.38362
-127.01444
-113.935
-112.76387
-108.19357
0
0
0
0
0
0
0
0
0
-70.43876
-116.71474
0
-95.719317
-95.877299
0
0
0
0
0
0
0
0
0
0
0
-95.848119
0
0
0
0
0
0
0
0
0
0
0
0
0
0
0
0
0
0
0
0
0
0
0
0
-102.30785
0
0
0
0
0
-104.37553
0
-83.363511
-120.11985
-117.03695
-135.75261
-98.108305
0
0
0
0
0
0
0
0
0
0
0
0
0
0
0
0
0
0
0
0
0
-158.47279
-172.59811
-149.01568
-146.26926
-165.70501
-136.40639
-157.32431
-150.94214
-133.26108
0
-138.29445
-160.4832
-123.17052
-115.70953
0
0
0
0
0
0
0
0
0
0
0
0
0
0
0
0
0
0
0
0
0
-157.43244
-171.11287
-170.39955
-173.245
-143.96832
-174.42652
-161.09999
-181.26718
-184.33925
-176.30317
-178.22675
-195.81616
-184.04432
-185.43817
-180.26765
-198.64924
-182.35952
-182.32386
-174.84566
-187.0376
-186.83996
-166.24409
-144.97682
-141.92679
-157.80319
-144.68603
-160.91907
-165.04322
-176.37824
-147.2315
-172.6332
-156.39852
-169.65008
-178.06359
-164.80521
-151.3166
-179.40473
-178.17302
-175.02743
-154.15392
-168.54345
-167.38768
-103.24061
0
0
-64.61685
-97.081507
-67.905804
-73.190806
-126.94972
-83.591731
-129.84936
-87.53805
-133.75963
-135.41251
-81.759801
-141.14841
-147.80577
-182.00898
-146.24114
-164.44011
-160.21364
-122.6113
-153.57474
-168.15067
-157.85113
-173.60704
-164.43974
-160.24493
-167.20086
-127.63958
-155.19042
0
-97.395376
-130.77248
-146.47031
-84.551368
-128.28128
-140.85474
-84.986037
-125.07063
-119.17204
-149.28126
-99.415462
0
-98.23165
-102.79739
-104.12075
0
-99.65293
0
-68.216882
-132.89229
-106.1369
-108.22659
-97.357621
-136.01761
-69.348486
-144.45794
-173.45041
-146.10789
-147.0498
-188.60691
-144.88605
-174.46784
-148.39541
-188.18632
-143.55785
-171.54606
-148.04488
-145.01417
-175.28148
-83.328304
0
0
-52.258023
-84.256926
0
-51.564899
-105.28039
0
-102.9811
0
-106.11694
-101.18982
0
-109.67741
-100.49358
-136.13025
-69.82853
-109.728
-138.3784
-70.135084
-102.61369
-154.43398
-122.65455
-140.63505
-107.01358
-135.26254
-118.1548
0
0
0
0
0
0
0
0
0
0
0
0
0
0
0
0
0
0
0
0
0
-88.365462
-145.67302
-93.434316
0
-125.89872
-102.60053
0
0
-85.310041
0
0
0
-81.028115
0
0
-121.64528
0
0
0
-115.55837
0
-150.46124
-172.09883
-166.84157
-163.86726
-162.95588
-161.0243
-150.88341
-141.25862
-125.11256
-137.5524
-145.59309
-132.43969
-151.46807
-132.60766
-124.14768
-71.961252
-123.65471
-86.023158
-114.58825
-133.353
-79.730086
-117.4456
0
0
0
-117.52152
-100.13379
0
-149.00562
-162.97977
-142.85162
-149.23988
-140.48207
-157.08844
-157.41884
-141.06472
-156.04491
-139.96074
-109.35032
-155.55579
-139.18608
-123.47749
-127.60582
-142.52313
-91.600964
0
-138.62816
-129.56453
-83.970018
-85.935085
-166.86528
-119.17245
-120.47452
-123.18032
-168.8031
-87.104107
0
-93.803283
-89.121832
-90.497545
0
-94.959781
0
-180.59852
-139.83591
-135.32336
-136.03037
-184.42205
-180.14001
-140.23647
-136.40453
-184.13377
-174.21475
-138.86739
-180.29355
-140.6145
-134.37932
-75.544739
0
0
0
-75.497996
0
0
-120.10666
-124.92778
-166.31381
-85.134307
-172.01763
-117.61011
-87.76499
-91.941075
0
-98.037377
0
-96.480038
-93.164416
0
-135.00119
-158.94408
-159.58341
-167.36917
-126.43243
-164.51578
-145.70007
-186.72383
-199.25454
-198.16667
-169.29633
-204.53324
-178.78897
-178.08584
-175.2784
-133.17415
-163.56896
-150.27801
-169.73788
-169.04338
-156.22512
0
0
0
0
0
0
0
-72.877392
0
0
0
-58.330551
-77.182478
0
0
0
0
0
0
0
0
0
0
0
0
0
0
0
0
-123.43818
-99.474079
0
-102.37219
0
-106.6186
0
-60.709122
0
-78.224932
-80.449173
0
0
0
0
0
0
0
0
0
0
0
0
0
0
0
0
0
0
0
0
0
0
0
0
-109.12844
-96.622908
0
-93.816296
0
0
0
0
0
0
0
0
0
0
0
-76.028452
0
0
0
0
0
0
0
0
0
0
0
0
0
0
0
0
0
0
0
0
0
0
0
0
0
0
0
0
0
0
0
0
-120.41111
0
0
0
-104.15902
-125.8005
0
0
0
0
0
0
0
0
0
0
0
0
0
0
0
-111.45008
-133.74307
-129.04061
0
-137.75367
-113.87185
0
0
-108.64851
0
-123.53018
-132.14916
0
0
0
0
0
0
0
0
0
0
0
0
0
0
0
0
0
0
0
0
0
0
0
0
0
0
0
0
0
0
0
0
0
0
0
0
0
0
-106.03859
-115.056
0
-100.47845
0
0
0
0
0
0
0
0
0
0
0
-106.43141
0
0
0
0
0
0
0
0
0
0
0
0
0
0
0
-77.703961
0
0
0
0
0
0
0
0
0
0
0
0
0
0
0
0
0
0
0
0
0
0
0
0
-80.689072
0
0
0
0
0
0
0
0
0
0
0
0
0
0
0
0
0
0
0
0
0
0
0
0
0
0
0
0
0
0
0
0
0
0
0
0
0
0
0
0
0
0
0
0
0
0
0
0
0
0
0
0
0
0
0
0
0
0
0
0
0
0
0
0
0
0
0
0
0
0
0
0
0
0
0
0
0
0
0
0
0
0
0
0
0
0
0
0
0
0
0
0
0
0
0
0
0
0
0
0
0
0
0
0
0
0
0
0
0
0
-73.953756
-120.44009
-114.79843
-120.0975
-94.417623
-97.690504
-94.333415
0
0
0
0
0
0
0
0
0
0
0
0
0
0
0
-55.212946
-56.064489
-98.697623
0
-73.461238
-73.655628
0
0
0
0
0
0
0
-30.482085
0
0
0
-58.533272
-30.454096
0
0
0
0
0
0
0
0
0
0
0
0
0
0
0
0
0
0
0
0
0
0
0
-61.673362
0
-28.383448
0
-29.80761
-40.847373
-104.75649
-58.501081
-75.439241
-87.148887
-91.592057
-116.63611
-65.719104
0
0
0
0
0
0
0
0
0
0
0
0
0
0
0
0
0
0
0
0
0
-119.63919
-171.56517
-135.35066
-142.21537
-143.22664
-149.08458
-114.71058
0
0
0
0
0
0
0
-98.145033
-98.916315
-71.232847
-123.47112
-128.18288
-94.841354
-72.184286
0
0
0
0
0
0
0
0
0
0
0
0
0
0
0
0
0
0
0
0
0
0
0
0
0
0
0
0
0
0
0
0
0
0
0
0
0
0
0
0
0
0
0
0
0
0
0
0
0
0
0
0
0
0
0
0
0
0
0
0
0
0
0
0
0
0
0
0
0
0
0
0
0
0
0
0
0
0
0
0
0
0
0
0
0
0
0
0
0
0
0
0
0
0
0
0
0
0
0
0
0
0
0
0
0
0
0
0
0
0
0
0
0
0
0
0
0
0
0
0
0
0
0
0
0
0
0
0
0
0
0
0
0
0
0
0
0
0
0
0
0
0
0
0
0
0
0
0
0
0
0
0
0
0
0
0
0
0
0
0
0
0
0
0
0
0
0
0
0
0
0
0
0
0
0
0
0
0
0
0
0
0
0
0
0
0
0
0
0
0
0
0
0
0
0
0
0
0
0
0
0
0
0
0
0
0
0
0
0
0
0
0
0
0
0
0
0
0
0
0
0
0
0
0
0
0
0
0
0
0
0
0
0
0
0
0
0
0
0
0
0
0
0
0
0
0
0
0
0
0
0
0
0
0
0
0
0
0
0
0
0
0
0
0
0
0
0
0
0
0
0
0
0
0
0
0
0
0
0
0
0
0
0
0
0
0
0
0
0
0
0
0
0
0
0
0
0
0
0
0
0
0
0
0
0
0
0
0
0
0
0
0
0
0
0
0
0
0
0
0
0
0
0
0
0
0
0
0
0
0
0
0
0
0
0
0
0
0
0
0
0
0
0
0
0
0
0
0
0
0
0
0
0
0
0
0
0
0
0
0
0
0
0
0
0
0
0
0
0
0
0
0
0
0
0
0
0
0
0
0
0
0
0
0
0
0
0
0
0
0
0
0
0
0
0
0
0
0
0
0
0
0
0
0
0
0
0
0
0
0
0
0
0
0
0
0
0
0
0
0
0
0
0
0
0
0
0
0
0
0
0
0
0
0
0
0
0
0
0
0
0
0
0
0
0
0
0
0
0
0
0
0
0
0
0
0
0
0
0
0
0
0
0
0
0
0
0
0
0
0
0
0
0
0
0
0
0
0
0
0
0
0
0
0
0
0
0
0
0
0
0
0
0
0
0
0
0
0
0
0
0
0
0
0
0
0
0
0
0
0
0
0
0
0
0
0
0
0
0
0
0
0
0
0
0
0
0
0
0
0
0
0
0
0
0
0
0
0
0
0
0
0
0
0
0
0
0
0
0
0
0
0
0
0
0
0
0
0
0
0
0
0
0
0
0
0
0
0
0
0
0
0
0
0
0
0
0
0
0
0
0
0
0
0
0
0
0
0
0
0
0
0
0
0
0
0
0
0
0
0
0
0
0
0
0
0
0
0
0
0
0
0
0
0
0
0
0
0
0
0
0
0
0
0
0
0
0
0
0
0
0
0
0
0
0
0
0
0
0
0
0
0
0
0
0
0
0
0
0
0
0
0
0
0
0
0
0
0
0
0
0
0
0
0
0
0
0
0
0
0
0
0
0
0
0
0
0
0
0
0
0
0
0
0
0
0
0
0
0
0
0
0
0
0
0
0
0
0
0
0
0
0
0
0
0
0
0
0
0
0
0
0
0
0
0
0
0
0
0
0
0
0
0
0
0
0
0
0
0
0
0
0
0
0
0
0
0
0
0
0
0
0
0
0
0
0
0
0
0
0
0
0
0
0
0
0
0
0
0
0
0
0
0
0
0
0
0
0
0
0
0
0
0
0
0
0
0
0
0
0
0
0
0
0
0
0
0
0
0
0
0
0
0
0
0
0
0
0
0
0
0
0
0
0
0
0
0
0
0
0
0
0
0
0
0
0
0
0
0
0
0
0
0
0
0
0
0
0
0
0
0
0
0
0
0
0
0
0
0
0
0
0
0
0
0
0
0
0
0
0
0
0
0
0
0
0
0
0
0
0
0
0
0
0
0
0
0
0
0
0
0
0
0
0
0
0
0
0
0
0
0
0
0
0
0
0
0
0
0
0
0
0
0
0
0
0
0
0
0
0
0
0
0
0
0
0
0
0
0
0
0
0
0
0
0
0
0
0
0
0
0
0
0
0
0
0
0
0
0
0
0
0
0
0
0
0
0
0
0
0
0
0
0
0
0
0
0
0
0
0
0
0
0
0
0
0
0
0
0
0
0
0
0
0
0
0
0
0
0
0
0
0
0
0
0
0
0
0
0
0
0
0
0
0
0
0
0
0
0
0
0
0
0
0
0
0
0
0
0
0
0
0
0
0
0
0
0
0
0
0
0
0
0
0
0
0
0
0
0
0
0
0
0
0
0
0
0
0
0
0
0
0
0
0
0
0
0
0
0
0
0
0
0
0
0
0
0
0
0
0
0
0
0
0
0
0
0
0
0
0
0
0
0
0
0
0
0
0
0
0
0
0
0
0
0
0
0
0
)


6018
(
0
0
0
0
0
0
0
0
0
0
0
0
0
0
0
0
0
0
0
0
0
0
0
0
0
0
0
0
0
0
0
0
0
0
0
0
0
0
0
0
0
0
0
0
0
0
0
0
0
0
0
0
0
0
0
0
0
0
0
0
0
0
0
0
0
0
0
0
0
0
0
0
0
0
0
0
0
0
0
0
0
0
0
0
0
0
0
0
0
0
0
0
0
0
0
-98.553329
0
-103.1391
0
0
0
0
-115.96247
0
0
-112.61295
0
0
-101.79016
0
0
0
0
0
0
0
0
0
0
0
0
0
0
0
0
0
0
0
0
0
0
0
0
0
0
0
0
0
0
0
0
0
0
0
0
0
0
0
0
0
0
0
0
0
0
0
0
0
0
0
0
0
0
0
0
0
0
0
0
0
0
0
0
0
0
0
0
0
0
0
0
0
0
0
0
0
0
0
0
0
0
0
0
0
0
0
0
0
0
-123.95109
0
0
0
0
0
0
0
0
0
0
0
0
0
0
0
0
0
0
0
0
0
0
0
0
0
0
0
0
0
0
0
0
0
0
0
0
0
0
0
0
0
0
0
0
0
0
0
0
0
0
0
0
0
0
0
0
0
0
0
0
0
0
0
0
0
0
0
0
0
0
0
0
0
0
0
0
0
0
0
0
0
0
0
0
0
0
0
0
0
0
0
0
0
0
0
0
0
-91.858489
0
0
0
0
0
0
-96.654803
0
0
0
0
0
0
0
0
0
0
0
0
0
0
0
0
0
0
0
0
0
0
0
0
0
0
0
0
0
0
0
0
0
0
0
0
0
0
0
0
0
0
0
0
0
0
0
0
0
0
0
0
0
0
0
0
0
0
0
0
0
0
0
0
0
0
0
0
0
0
0
0
0
0
0
0
0
0
0
0
0
0
0
0
0
0
0
0
0
0
0
0
0
0
0
0
0
0
0
0
0
0
0
0
0
0
0
0
0
0
0
0
0
0
0
0
0
0
0
0
0
0
0
0
0
0
-103.14282
0
0
0
0
-122.60653
0
0
0
0
0
0
0
0
0
0
0
0
0
0
0
0
0
0
0
0
0
0
0
0
-117.25108
0
0
0
0
0
0
0
0
0
0
0
0
0
0
0
0
0
0
-122.72906
0
0
0
0
0
-136.66289
0
0
0
0
0
0
0
-107.7312
0
0
0
0
0
0
0
0
0
0
0
-127.9026
0
0
0
0
0
0
0
0
0
0
0
0
0
0
0
0
0
0
0
0
0
0
0
0
0
0
0
0
0
0
0
0
0
0
0
0
0
0
0
0
0
0
0
0
0
0
0
0
0
0
0
0
0
0
0
0
0
0
0
0
0
0
0
0
0
0
0
0
0
0
0
0
0
0
0
0
0
0
0
0
0
0
0
0
0
0
0
0
0
0
0
0
0
0
0
0
0
0
0
0
0
0
0
0
0
0
0
0
0
0
0
0
0
0
0
0
0
0
0
0
0
0
0
0
0
0
0
0
0
0
0
0
0
0
0
0
0
0
0
0
0
0
0
0
0
0
0
0
0
0
0
0
0
0
0
0
0
0
0
0
0
0
0
0
0
0
0
0
0
0
0
0
0
0
0
0
0
0
0
0
0
0
0
0
0
0
0
0
0
0
0
0
0
0
0
0
-128.71208
0
0
0
0
0
0
0
0
0
0
0
0
0
0
0
0
0
0
0
0
0
0
0
0
0
0
0
0
0
0
0
0
0
0
0
0
0
0
0
0
0
0
0
0
0
0
0
0
0
0
0
0
0
0
0
0
0
0
0
0
0
0
0
0
0
0
0
0
0
0
0
0
0
0
0
0
0
0
0
0
0
0
0
0
0
0
0
0
0
0
0
0
0
0
0
0
0
0
0
0
0
-106.30118
-43.565634
-64.409038
-69.968759
0
0
0
-67.377126
0
-59.414465
0
0
0
0
-115.43531
-77.884471
-72.384483
0
-74.88565
0
0
0
0
-53.511143
0
0
0
0
0
0
0
0
0
0
0
0
0
0
0
0
0
0
0
0
0
0
0
-125.30996
0
-116.80051
-122.80043
0
-164.73506
-85.082941
0
0
0
-100.40051
0
-150.53303
0
0
0
-92.243511
0
0
-155.48409
0
-110.76068
0
-130.05417
-108.14509
0
-156.07499
-90.00926
0
0
0
0
0
0
0
0
0
0
0
0
0
0
0
0
0
0
0
0
0
0
0
0
0
0
0
0
0
0
0
0
0
0
0
0
0
0
0
0
0
0
0
0
0
0
0
0
0
0
0
0
0
0
0
0
0
0
0
0
0
0
0
0
0
0
0
0
0
0
0
0
0
0
0
0
0
0
0
0
0
0
0
0
0
0
0
0
0
0
0
0
0
0
0
0
0
0
0
0
0
0
0
0
0
0
0
0
0
0
0
0
0
0
0
0
0
0
0
0
0
0
0
0
0
0
0
0
0
0
0
0
0
0
0
0
0
0
0
0
0
0
0
0
0
0
0
0
0
0
0
0
0
0
0
0
0
0
0
0
0
0
0
0
0
0
0
0
0
0
0
0
0
0
0
0
0
0
0
0
0
0
0
0
0
0
0
0
0
0
0
0
0
0
0
0
0
0
0
0
0
0
0
0
0
0
0
0
0
0
0
0
0
0
0
0
0
0
0
0
0
0
0
0
0
0
0
0
0
0
0
0
0
0
0
0
0
0
0
0
0
0
0
0
0
0
0
0
0
0
0
0
0
0
0
0
0
0
0
0
0
0
0
0
0
0
0
0
0
0
0
0
0
0
0
0
0
0
0
0
0
-99.573261
0
0
0
0
0
0
0
0
0
0
0
0
0
0
0
0
0
0
0
0
0
0
0
0
0
0
0
0
0
0
0
0
0
0
0
0
0
0
0
0
0
0
0
0
0
0
0
0
0
0
0
0
0
0
0
0
0
0
0
0
0
0
0
0
0
0
0
0
0
0
0
0
0
0
0
0
0
0
0
0
0
0
0
0
0
0
0
0
0
0
0
0
0
0
0
0
0
0
0
0
0
0
0
0
0
0
0
0
0
0
0
0
0
0
0
0
0
0
0
0
0
0
0
0
0
0
0
0
0
0
0
0
0
0
0
0
0
0
0
0
0
0
0
0
0
0
0
0
0
0
0
0
0
0
0
0
0
0
0
0
0
0
0
0
0
0
0
0
0
0
0
0
0
0
0
0
-66.616382
0
0
0
0
0
0
0
0
0
0
0
0
0
0
0
0
0
0
0
0
-69.160046
0
0
0
0
0
0
-78.094608
0
0
0
0
0
0
0
0
0
0
0
0
0
0
0
0
0
0
0
0
0
0
0
0
0
0
0
0
0
0
0
0
0
0
0
0
0
0
0
0
0
0
0
0
0
0
0
0
0
0
0
0
0
0
0
0
0
0
0
0
0
0
0
0
0
0
0
0
0
0
0
0
0
0
0
0
0
0
0
0
0
0
0
0
0
0
0
0
0
0
0
0
0
0
0
0
0
0
0
0
0
0
0
0
0
0
0
0
0
0
0
0
0
0
0
0
0
0
0
0
0
0
0
0
0
0
0
0
0
0
0
0
0
0
0
0
0
0
0
0
0
0
0
0
0
0
0
0
0
0
0
0
0
0
0
0
0
0
0
0
0
0
0
0
0
0
0
0
0
0
0
0
0
0
0
0
0
0
0
0
0
0
0
0
0
0
0
0
0
0
0
0
0
0
0
0
0
0
0
0
0
0
0
0
0
0
0
0
0
0
0
0
0
0
0
0
0
0
0
0
0
0
0
0
0
0
0
0
0
0
0
0
0
0
0
0
0
0
0
0
0
0
0
0
0
0
0
0
0
0
0
0
0
0
0
0
0
0
0
0
0
0
0
0
0
0
0
0
0
0
0
0
0
0
0
0
0
0
0
0
0
0
0
0
0
0
-136.91685
0
0
0
0
-86.213267
0
0
0
0
0
0
0
0
0
0
0
0
0
0
0
0
0
0
0
0
0
0
0
0
0
-146.38978
0
0
0
0
0
-89.454345
0
0
0
0
0
0
0
0
0
0
0
0
0
0
0
0
0
0
0
0
0
0
0
0
0
0
0
0
0
-64.024132
0
0
0
0
0
0
0
0
0
0
0
0
0
0
0
0
0
0
0
0
0
0
0
-67.241541
-84.182425
-94.766546
-76.74332
-74.521791
-82.94096
-68.184097
0
0
0
0
0
0
0
-83.882754
-78.477317
-113.85138
-94.566019
-101.29949
-94.407715
-72.301628
0
0
0
0
0
0
0
-114.0167
-98.014733
-122.46999
-112.54852
-127.04443
-98.390796
-105.67051
0
0
0
0
-54.676666
0
0
0
0
0
0
0
0
0
-124.87551
-86.91688
-127.54221
-123.31166
-143.50579
-108.17665
-97.303097
0
-86.559121
0
-78.79527
0
0
0
0
0
0
0
0
0
0
0
0
0
0
0
0
0
0
0
0
0
0
0
0
0
0
0
0
0
0
0
0
0
0
0
0
0
0
0
0
0
0
0
0
0
0
0
0
0
0
0
0
0
0
0
0
0
0
0
0
-100.08928
0
-122.75064
0
-102.19403
0
0
0
0
0
0
0
0
0
0
0
0
0
0
0
0
0
0
0
0
0
0
0
0
0
0
0
0
0
0
0
0
0
0
0
0
0
0
0
0
0
0
0
0
0
0
0
0
0
-62.080984
-86.391514
-73.363183
-64.798621
-60.270992
0
0
0
0
0
0
0
0
0
-64.716243
-101.25321
-78.515509
-74.467249
-68.27051
0
0
0
0
0
0
0
0
0
0
0
0
0
0
0
0
0
0
0
0
0
0
0
0
0
0
0
0
0
0
0
0
0
0
0
0
0
0
0
0
0
0
0
0
0
0
0
0
0
0
0
0
0
0
0
0
0
0
0
0
0
0
0
0
-110.4687
-48.375439
-68.584798
-111.41897
-111.99739
-108.73414
-83.364614
-138.76643
0
-75.210635
-132.63696
0
-103.65497
-131.51589
-79.167157
0
-64.69413
-116.60048
0
-92.931261
0
-133.03973
0
0
0
0
-92.940999
0
-130.04217
-109.28838
-74.797311
0
0
-125.82963
-96.961849
-120.31527
-94.250666
-78.026676
-120.64256
-151.94855
-113.95257
-129.70127
-35.411307
0
-57.869564
-110.61815
0
-75.368302
0
0
0
-129.30352
0
-87.796844
0
0
-65.693758
0
0
0
0
-75.270451
0
-84.45819
0
0
0
-154.59932
-102.99308
0
0
0
0
0
0
0
0
0
0
0
0
0
0
0
0
0
0
0
0
0
0
0
0
0
0
0
0
0
-126.43857
-137.68954
-166.76341
-173.43148
-122.29781
-144.91335
-115.48236
-169.91641
0
-68.01268
-135.47161
-140.24232
-53.191329
-111.62271
0
-107.82632
-156.66253
-154.82279
0
0
-98.979216
-149.40055
0
0
0
-90.279082
0
0
-175.73146
-111.70975
-69.928134
0
-134.37623
-108.99445
0
-99.703295
0
-158.66653
-158.93421
0
-95.732512
0
-153.22511
-121.51491
-162.3135
-161.88162
-157.6596
-159.56456
-123.13213
0
-50.441693
0
0
-114.62822
-73.363391
0
0
0
0
0
0
0
0
0
0
0
0
0
0
0
0
0
0
0
0
0
0
-105.41606
0
0
0
0
0
0
0
0
0
0
0
0
0
0
0
0
0
0
0
-109.1513
0
0
-121.20559
-92.929902
0
0
0
0
0
0
0
0
0
0
0
0
0
0
0
0
0
0
0
0
0
0
0
-106.0919
0
0
-85.258222
0
0
0
0
0
0
0
0
-78.696199
0
0
0
0
-71.605092
0
0
0
0
0
0
0
0
0
0
0
0
0
0
0
0
0
0
0
0
0
0
0
0
0
0
0
0
0
0
0
0
0
0
0
0
0
0
0
0
0
0
0
0
0
0
0
0
0
0
0
0
0
0
0
0
0
0
0
0
0
0
0
0
0
0
0
0
0
0
0
0
0
0
0
0
0
0
0
0
0
0
0
0
0
-123.5499
0
0
-81.610018
0
-78.690561
0
0
0
0
-73.597356
0
-95.566606
0
0
0
-146.70714
0
-93.624167
0
0
0
0
0
0
0
0
0
0
0
0
0
0
0
0
0
0
0
0
0
0
0
0
0
0
0
0
0
0
0
0
0
0
0
0
0
0
0
0
0
0
0
0
0
0
0
0
0
0
0
0
0
0
0
0
0
0
0
0
0
0
0
0
0
0
0
0
0
0
-43.341196
-50.105182
-49.794029
0
-38.553524
-57.761667
-43.242768
-55.767914
-69.222356
-59.001911
0
0
-70.776405
-55.010577
-74.66366
-97.317764
-91.724482
-94.323381
-82.203891
-82.940247
-86.720814
-53.891632
-57.626247
-47.712255
-39.137974
-58.498903
-44.216443
-52.161901
-63.299813
-60.3842
-77.598171
-55.803443
-67.930424
-72.271436
-52.093541
-56.642488
-62.720661
-64.401595
-82.287084
-50.497334
-69.941262
-75.690122
-43.831294
0
0
0
0
0
0
0
0
0
0
0
0
0
0
0
-65.176243
0
-53.306171
-57.581638
0
0
0
0
0
0
0
0
0
-54.429371
-62.433885
-46.230209
-49.750676
-56.38014
0
0
0
0
0
0
0
0
0
-48.163664
-46.193516
-63.037668
-54.348636
-64.466152
-53.354793
0
-56.512414
-46.483576
-65.056491
-55.053104
-75.345223
-50.396689
-92.398404
-122.62397