/*--------------------------------*- C++ -*----------------------------------*\
  =========                 |
  \\      /  F ield         | OpenFOAM: The Open Source CFD Toolbox
   \\    /   O peration     | Website:  https://openfoam.org
    \\  /    A nd           | Version:  8
     \\/     M anipulation  |
\*---------------------------------------------------------------------------*/
/*   Windows 32 and 64 bit porting by blueCAPE: http://www.bluecape.com.pt   *\
|  Based on Windows porting (2.0.x v4) by Symscape: http://www.symscape.com   |
\*---------------------------------------------------------------------------*/
FoamFile
{
    version     2.0;
    format      ascii;
    class       scalarListList;
    location    "constant/vegetation";
    object      F;
}
// * * * * * * * * * * * * * * * * * * * * * * * * * * * * * * * * * * * * * //


261
(

2124
(
0.00092252295
0.00018975251
0.0019707764
0.00074426696
0.02246757
0.0036591491
0.0063855312
0.0019319739
0.012275975
0.0019822234
0.0027601054
0.00018598437
0.00038106906
0.00051167803
0.00020820633
0.00020470099
0.00026172387
0.0030333896
0.00025480788
0.0018244152
0.00078812874
0.00041229383
0.0003755736
0.0005235676
0.00043940799
0.00046127228
0.0014931822
0.00061812752
0.00051130268
0.00017735061
0.00010195593
0.00011479722
8.6637155e-05
0.00012174891
0.00013543083
0.00013667753
0.000100011
8.5366935e-05
9.8293245e-05
0.00026223522
0.0001570259
0.00010617627
0.00012872867
0.00012776564
9.1098628e-05
0.00010775235
0.00016238225
6.5990623e-05
7.8750655e-05
9.3309603e-05
7.0337662e-05
8.3197607e-05
0.00012452971
0.00013109751
0.0001487394
0.00013553969
0.00011768343
0.00012773381
9.8336824e-05
0.00011055317
0.00012010804
0.00010149026
0.00023800273
9.1152626e-05
9.4104172e-05
0.00028821014
0.00027295111
0.00023254312
0.0001310957
0.00010040601
0.00012311387
0.00014004922
0.00014177615
0.00013106999
0.0002331738
5.1191603e-05
6.7979919e-05
4.9139878e-05
0.00013329056
0.00012909001
0.00013708741
0.0001424449
0.00016015039
0.00016767334
0.00011579141
9.3902176e-05
9.870097e-05
0.00010174466
0.00011385663
0.00010439849
0.00011191131
0.00011561978
0.00010949303
0.00011754202
9.2528539e-05
0.00010543877
0.00034595878
0.00040470066
0.00031592379
0.00012227141
0.0001286505
0.00012008728
0.00010752852
0.00010242852
0.00010979661
0.00012424627
0.00013533309
0.0001261525
0.00011382388
0.00013828065
0.0001222192
9.5343501e-05
0.00010337478
0.00010756886
9.605382e-05
0.00010512065
0.00010258037
0.00023967341
0.00029053913
0.00028541552
0.0002544415
0.00026996689
8.9303112e-05
8.6608996e-05
8.4692106e-05
8.6599979e-05
9.5861539e-05
8.7796772e-05
0.00011516454
0.00012597464
0.00011771028
0.00014831129
0.00013732151
0.00014530076
5.362213e-05
5.747489e-05
0.00013765124
0.0001279296
0.0001284026
0.00015109763
0.00014478574
0.00015377009
9.0739378e-05
9.316241e-05
9.0503799e-05
0.00010510146
0.00010848891
9.7046698e-05
5.817724e-05
5.949839e-05
8.766204e-05
8.000701e-05
8.2114448e-05
0.00012751768
0.00013115661
0.00013273867
0.00012509592
0.00015099825
0.00014781943
9.3563758e-05
9.7211373e-05
9.9908807e-05
6.194343e-05
6.7673773e-05
6.3470148e-05
7.5003763e-05
7.211872e-05
7.6919789e-05
0.00013109777
0.00014019779
0.00013614164
0.00012496932
0.00012092225
0.00012781529
0.00015221809
0.00014494603
0.00014752854
0.00010370519
0.00011375381
0.00010668074
0.0001584292
0.0001572613
0.00016130574
4.2575396e-05
4.3596896e-05
0.00015844766
0.00016474778
0.00016287317
0.00011152052
0.00014721856
0.00011912668
7.3222084e-05
7.1292323e-05
6.6778758e-05
9.082655e-05
9.7052208e-05
8.5446272e-05
8.0150638e-05
7.5285901e-05
7.987796e-05
0.0001349392
0.00012433201
0.00013126035
0.0001386372
0.00013428982
0.00014208993
0.00011247097
0.00011698189
0.00010964142
0.00014702285
0.00014898302
0.0001602889
0.00015756173
0.00014698334
0.0024020542
0.0020215596
0.0025887803
0.0021175176
0.004958428
0.011038666
9.2102192e-32
0.0069490861
0.00046022724
0.0023314134
0.016174849
0.0018417499
0.0016914572
0.0012918459
0.00079455618
0.0012801068
0.00015720369
0.00018859286
0.00013014151
0.0014904468
0.00028053443
0.00019885903
0.00020415126
8.4857165e-05
7.0592829e-05
0.00010080815
5.4273582e-05
0.018365229
0.0026679621
0.004848431
0.022540475
0.0029574844
0.00031765609
0.00040358426
0.00047107778
0.00045380562
0.00029312941
0.00040760558
0.00037428533
0.00033372831
0.00042355296
0.00069326112
0.00042016282
0.00040518747
7.7916327e-05
0.00012099955
5.6630483e-05
5.6887553e-05
5.6732191e-05
5.5116978e-05
5.5661731e-05
5.2954337e-05
5.2085148e-05
9.2934618e-05
8.6781624e-05
0.00010371039
0.00016007728
0.0001193745
0.0001469059
5.6791153e-05
5.6713725e-05
6.8349896e-05
5.0852108e-05
6.2629235e-05
1.8912126e-05
7.2174838e-05
0.0006300577
0.00034776975
0.0006589078
8.8835e-05
6.7239538e-05
0.00057795396
0.00014757853
0.00019351534
0.00034660594
0.00063087721
0.00065187387
9.8672215e-05
6.23764e-05
0.00013875856
0.00015410019
5.1191336e-05
5.0089875e-05
6.0075538e-05
5.9838816e-05
8.7178819e-05
9.9717184e-05
7.2798253e-05
7.8699442e-05
9.141656e-05
5.8024263e-05
5.863609e-05
5.4838256e-05
5.5663073e-05
0.00019231616
0.00018213324
8.372646e-05
9.4799889e-05
6.7182819e-05
6.4833809e-05
0.00014646534
0.00017905162
7.9364534e-05
7.1990488e-05
0.00016601766
0.00016820193
0.00018436404
0.00021237074
0.00019765191
0.00041615624
6.7108318e-05
0.00010708862
0.0006075355
0.00011237176
6.3116492e-05
5.4798934e-05
6.2068311e-05
0.00011883885
0.00016749791
0.00015883802
6.1566163e-05
6.0982072e-05
5.8745193e-05
6.0583415e-05
4.8534175e-05
5.4732199e-05
5.7936971e-05
5.55184e-05
9.3823246e-05
0.00013223638
0.00019910556
0.00015071848
6.1711292e-05
6.2007339e-05
8.5008244e-05
6.7616536e-05
6.1006352e-05
6.4775096e-05
6.4023469e-05
8.9110316e-05
0.00013311667
6.5982573e-05
8.2143631e-05
7.057631e-05
6.1597723e-05
6.3585772e-05
6.0718651e-05
6.1272969e-05
0.00013424767
0.00020348232
0.00015728725
7.0009603e-05
0.00012523125
6.2945154e-05
5.6938607e-05
6.1448926e-05
6.1270981e-05
5.6472646e-05
5.4482425e-05
5.9459425e-05
5.6114216e-05
6.0074052e-05
5.3759381e-05
5.708556e-05
5.6271769e-05
5.1201672e-05
8.3522917e-05
0.0001044004
9.6792207e-05
0.00011701404
0.00011616533
0.00019564032
0.00018365422
0.00010813501
0.00017106895
0.00013076739
5.6894739e-05
6.1908935e-05
6.2054666e-05
5.6874028e-05
7.5332087e-05
7.7899477e-05
4.458764e-05
7.2398782e-05
5.8084332e-05
0.00012171679
0.00017404707
0.00013262923
3.4546711e-05
5.7349697e-05
5.5231194e-05
0.00013035068
0.00020228105
0.00012967173
0.00020023323
0.00012351003
0.00012849314
8.0409821e-05
8.7604591e-05
7.3223284e-05
6.5483881e-05
0.00013832626
0.00016018171
0.00016443872
0.00017610244
0.00017223701
0.00018376902
0.0001932243
0.00020633131
0.00019188893
0.00019181779
0.00019608245
0.00017890076
0.00018257764
9.6785227e-05
0.00011026499
5.9876419e-05
5.7938078e-05
0.00013140769
0.00012399152
0.00016285334
0.00015914008
5.7468762e-05
5.212202e-05
5.3744447e-05
5.0427828e-05
6.4544917e-05
5.9476477e-05
6.4349777e-05
5.9605233e-05
9.9156786e-05
7.8267721e-05
0.00011312269
0.00013319319
6.8648226e-05
6.1403263e-05
7.8323284e-05
7.3187901e-05
7.0785646e-05
7.5411176e-05
6.2364969e-05
5.7176573e-05
6.303182e-05
5.9188166e-05
5.9885955e-05
5.6413886e-05
6.4766654e-05
5.9944809e-05
0.00021036612
0.00019103036
0.00017994923
0.00018942501
0.00018426127
0.00016406073
0.00016753288
0.00020375068
0.00018848435
0.00019002316
0.00019762651
0.00018664269
0.00018449351
7.5733033e-05
7.4306197e-05
8.4520769e-05
0.00011059034
7.0187101e-05
6.8353357e-05
7.991845e-05
6.0782318e-05
0.00012936643
0.00015102838
0.00017301146
0.00015511821
0.00015566008
0.00011763344
0.00015253725
0.00015118215
0.00011776443
0.00015023005
0.00016884803
0.00013130717
0.00016742715
0.00013048553
0.00016495413
0.00016628309
0.00015756021
0.0001254725
0.00015958274
0.0001633831
0.00012701596
0.00016155544
0.0093472159
0.0065446185
0.0067831579
0.019535828
0.00016918568
0.00024181467
0.00037034696
0.00013990364
0.00042736648
0.00020963058
4.266331e-05
0.00020792427
4.2646774e-05
0.00017448473
0.00047479881
0.00015029612
0.00015245511
9.8214121e-05
7.9017111e-05
5.9826677e-05
7.360629e-05
0.00010573331
0.00013151532
0.00015400271
0.0001409293
4.375291e-05
4.5261283e-05
5.5967459e-05
4.6908238e-05
0.00025319611
0.00036418488
7.854684e-05
7.3047827e-05
0.00027939266
6.4299805e-05
7.9155238e-05
0.00010572204
0.00032051214
8.4992298e-05
4.8020297e-05
5.1388795e-05
8.4506623e-05
9.0953031e-05
0.0001662468
0.00016236461
0.00014889147
0.00011380527
0.00047834802
0.00013884997
0.0001182204
0.00012696437
1.3892339e-05
2.3387339e-05
0.00018417031
6.0126449e-05
4.9595799e-05
4.2973532e-05
5.3746321e-05
4.7940238e-05
4.491094e-05
4.2039488e-05
0.00019571373
5.4092049e-05
0.00045884302
0.0004901949
8.6821859e-05
9.1280047e-05
8.0712639e-05
6.3308579e-05
6.798019e-05
8.4894824e-05
6.9905373e-05
7.5086438e-05
5.9007212e-05
5.5042046e-05
5.2978891e-05
6.4041383e-05
5.669978e-05
6.5135945e-05
6.8624925e-05
6.0742819e-05
9.3445328e-05
0.00011380847
0.0001006139
0.0001053604
9.79076e-05
0.00012239582
0.00011646592
0.00010831677
0.00011323278
0.00012119896
0.00013594263
0.00015756596
0.0001387925
0.00012479565
0.00015017284
0.00013281171
5.9772439e-05
4.2633077e-05
4.0091813e-05
3.4292821e-05
3.0789128e-05
4.4268481e-05
3.9506492e-05
3.8599973e-05
3.6861179e-05
3.9376578e-05
4.9563642e-05
5.245695e-05
4.6452214e-05
4.1305191e-05
4.9371376e-05
4.3675224e-05
0.00033492252
0.00016780226
0.00029212047
6.8840903e-05
7.214453e-05
7.7525132e-05
7.3782731e-05
8.918879e-05
8.2910411e-05
9.8232243e-05
0.00011907411
0.00011037852
9.133909e-05
9.550953e-05
0.00010288534
0.00015780379
0.00016886767
0.00016174492
0.0001223269
0.00012785085
0.00013683292
0.00013010459
0.00013938116
0.00014430979
5.6283006e-05
6.7601796e-05
6.2735686e-05
5.2447075e-05
5.005227e-05
5.8350826e-05
4.644616e-05
5.4386967e-05
4.7349918e-05
5.0752087e-05
5.896335e-05
5.5033013e-05
4.7688533e-05
0.0001282644
0.00012229885
0.00013513866
0.00029085143
0.0001452995
7.5014746e-05
0.00013517212
0.00013941166
0.00016521577
0.00016440782
4.2657727e-05
4.3744893e-05
4.3676564e-05
0.00016178462
0.00016816018
0.00014959295
0.00017239788
0.00016465106
0.00016632222
4.2686242e-05
4.3281501e-05
4.3495874e-05
4.2635319e-05
4.3705739e-05
4.3677188e-05
0.0001667061
0.00016907199
0.0001700159
0.00016334874
0.00016641531
0.00016799483
0.00015513211
0.00016492108
0.00015094425
0.00016321077
4.7946537e-05
4.8213734e-05
4.7581763e-05
4.7966017e-05
4.8899365e-05
4.7697227e-05
0.00016688365
0.00016854387
0.000166587
0.00016167194
0.00016636519
0.00016393684
0.00015165116
0.0027554318
0.0011727824
0.0019510334
0.016614552
0.0045046896
0.0029344197
0.0013174024
0.00084788948
0.0028308099
0.0022999757
0.00041898201
0.0004791807
0.00018589557
0.00012301214
0.00035161037
0.00036560115
0.00032564364
0.00022587468
0.00019214332
0.00015387195
0.00010894493
8.2716317e-05
0.022322199
0.010101405
0.011467596
0.0069813584
0.0043925232
0.0010298483
0.0009372169
0.0005408041
0.00095204978
0.00017823924
0.00081376385
7.6644929e-05
0.00013144615
0.00022186711
0.00019135417
0.0002537753
9.3709628e-05
8.6096656e-05
0.00010391063
0.00015723317
0.00011828264
0.0001413482
0.0007116353
0.00062581245
0.00020317403
0.00047129583
0.00049158451
0.00099475744
0.00052901447
0.00098597751
0.0005379146
0.00054798205
0.0002290935
0.00024383664
0.00011347622
0.00012455203
0.00031372077
0.00031212172
0.00029708775
0.00030210899
0.00027768416
0.00027041922
0.00031561771
0.00027526274
0.00031481028
0.00014955167
0.00013481521
0.00011299068
0.00025475114
0.00024152077
0.00022641756
0.00026889909
0.0002161701
0.00011366762
0.00025350136
0.00024549843
0.00022386712
7.5717106e-05
9.4308228e-05
7.5298829e-05
8.4569123e-05
8.4832927e-05
9.8054502e-05
0.00019452132
0.00018270686
0.00017211309
0.00086710217
0.00017905136
0.00051694899
5.5404494e-05
5.6268075e-05
0.0001997593
0.00038326219
0.00037697114
0.00015605236
0.0003216709
0.00030625823
7.2761106e-05
8.3086042e-05
8.398289e-05
0.00038321831
0.00038080577
0.00035376283
0.00037270196
0.00034551685
0.00031625383
0.00022363935
0.00023286168
0.00027566244
7.3877579e-05
8.2266072e-05
8.3096884e-05
0.00038149759
0.00022602612
0.00033184079
9.3888648e-05
0.00013131538
0.0001994082
0.00014434984
5.8565585e-05
9.6918066e-05
0.00013622584
0.00034504581
0.00019407136
0.00033954082
0.00019208516
0.00031900125
0.00033578388
0.00031168918
0.00019462607
0.00028556613
0.00034504113
0.00023573997
0.00033993157
0.0001615894
0.00020072822
0.00014482091
6.3168359e-05
0.00014586338
0.00038226588
0.00038016883
0.00039764095
0.00061783229
0.00038232496
0.00038109974
0.00036106837
0.00036739261
0.0003363983
0.000326541
0.00019630449
0.00025923315
0.00017992285
0.00029879777
0.00029692375
8.2409688e-05
0.00010865966
9.5637932e-05
0.00011987363
0.00011482553
0.00017528085
0.00017760337
0.00010634395
0.00015952914
0.00012726416
8.2339838e-05
0.00010580006
9.3837979e-05
5.3556264e-05
0.00090535576
0.0001655729
0.00011656857
0.00064376997
0.0001000812
0.00029737637
0.00029827755
8.1962395e-05
0.00011612949
0.00047481257
0.00044534483
0.00063650756
7.9234886e-05
8.7245429e-05
9.0759059e-05
8.4973032e-05
7.1312087e-05
8.4157679e-05
8.4743894e-05
0.00019046311
0.00018034135
6.9291707e-05
7.2732458e-05
7.5834167e-05
0.00016124698
0.00014162885
0.00014500574
7.889079e-05
7.1735921e-05
8.3785393e-05
8.4368778e-05
0.0002104725
0.00024979677
0.00026460703
0.00025446037
8.7854096e-05
9.4805222e-05
9.7791393e-05
0.00011292083
0.00012542046
0.00016021608
0.00034416228
0.00031467037
0.00034233571
0.00030964403
0.00032548258
0.0002912854
0.00033108684
0.00030630675
0.00030361704
0.00028474098
0.00029487749
0.00026290106
0.00034422781
0.00031531566
0.00027272102
0.00028308982
0.00034261727
0.00031138567
0.00017205142
0.00020034617
0.00015436433
0.00014368261
9.6246111e-05
0.00010828971
9.932084e-05
0.00012850933
0.0001188018
0.00013098141
8.9774878e-05
0.00010789419
9.042099e-05
9.8738455e-05
0.00013326438
0.00025582676
0.00019644707
0.00018656723
0.00023693782
0.00023172584
0.00017254745
0.00026004248
0.00023051592
0.00018895021
0.00022417872
0.00010456343
0.00011351355
0.00019536865
0.00025149231
0.00018945446
0.00024883476
0.00022514396
0.00017276343
8.2167383e-05
0.0001125653
9.4044324e-05
0.00010042884
0.00010422025
9.9437024e-05
0.00016233153
0.00012528229
0.00013988567
0.00011053088
0.00011242818
0.00012400184
8.7224701e-05
8.2825052e-05
8.6780366e-05
7.102082e-05
8.1052802e-05
4.2326146e-05
7.5256922e-05
7.2986205e-05
4.3816931e-05
0.072770027
0.0015824641
0.00061622359
0.0031524604
0.056684157
0.00063539006
0.00047100169
0.0062557385
0.0020234379
0.02100622
0.00082140053
0.0037618247
0.00072079743
0.0006787586
0.00077622515
0.000670097
0.0016327716
0.00055801897
0.00032233179
0.00032933724
0.00024499893
0.00020902536
0.00040699125
0.00047895038
0.00017422335
0.00013562871
0.16432116
0.025030543
0.00012353473
0.00012800288
0.00013071599
0.00012057047
9.8063794e-05
8.8092056e-05
9.0336189e-05
9.5527724e-05
0.00018488115
0.0002030461
0.0001397588
0.00012765053
0.00016462428
0.00016365418
0.00016797096
0.00017128264
0.00014653497
0.00014273416
0.00015606556
0.00015853753
0.00015429685
0.00015340249
0.00016120625
0.00015779365
0.00013453424
0.00013795695
0.00010607896
9.9471792e-05
0.00010844422
9.7398178e-05
0.00012509453
0.00011425424
0.00010928644
0.00011965883
0.00011903367
0.00010873882
0.00014654698
0.00014877858
0.00010463402
0.00011433694
0.00011586429
0.00010596921
0.00011181274
0.00012243432
0.00016372362
0.00016087161
8.63574e-05
0.00012996772
0.00011837773
0.00013985856
0.00013346775
0.00010884214
0.00016390487
0.00016172867
0.00015124084
0.00015907766
0.00014786097
0.00013540758
7.3063892e-05
7.8704487e-05
0.0001094681
7.8996188e-05
8.5416941e-05
0.00010039407
0.00015661697
0.00015817227
0.00018477729
0.00014469681
0.00011039435
0.00010109715
0.00016568695
0.00016266529
0.00014326704
0.00014071992
0.00015382895
0.00016632912
0.00014417575
0.00017445353
8.532073e-05
8.0535092e-05
0.00012176948
0.00014990255
0.00013794954
0.00013087292
0.00011250673
9.2950926e-05
0.00012055745
8.750135e-05
0.00014106531
0.00010094005
0.00013232483
0.00010766764
9.2344596e-05
9.8559386e-05
0.00016318546
0.00016224111
0.00010030746
0.00013148781
0.00012922861
9.8760491e-05
0.00015321384
0.0001609024
0.00013342172
0.00013935262
9.4460632e-05
0.0001228032
0.00012802456
9.7955729e-05
0.00012716206
0.0001149765
0.00012789764
0.0001270075
0.00013457077
0.00012933269
0.00011199782
0.00011798733
0.00016377507
0.00016323936
0.0001542483
0.00015686585
0.00014412069
0.00014000543
7.5075222e-05
7.6800782e-05
0.00010084433
0.00010635704
8.1282555e-05
8.5498139e-05
9.2796236e-05
8.325265e-05
0.0001035487
9.2619262e-05
0.00017224278
0.00016813255
0.00018489874
0.00022844802
0.0001321588
0.00015320624
0.00012072551
0.00011675988
0.00010696454
0.00011054562
0.00012266173
0.00016499579
0.00016539069
0.00016402028
0.00016233718
9.1769404e-05
9.0406482e-05
8.6647071e-05
8.9702747e-05
0.00016738622
0.00016629526
0.0001770766
0.0001696233
0.00014624265
0.00015004237
0.00013869846
0.00014224867
0.00015616237
0.00015322742
0.00015873103
0.00016063142
0.00015503886
0.00014258238
0.00015220773
0.00014178167
0.00016658151
0.00014908015
0.00014589959
0.00015599083
8.3852568e-05
8.2254344e-05
0.00013090164
0.00012501965
0.00012806486
0.00014111871
0.00010353711
0.00011539111
0.00010137544
9.1280655e-05
0.00011808159
0.0001106175
9.5167068e-05
8.9460934e-05
0.00012893673
0.00013682847
0.00011777591
0.00010442242
9.5556889e-05
0.00010977505
9.9871055e-05
0.00012020872
0.00013087321
0.00013016474
0.00011821263
9.9389094e-05
0.00010801994
0.00014398847
0.00013569396
0.0001506684
0.00013767484
0.00010309967
9.5802159e-05
0.00011258505
0.0001248038
0.00012654757
0.00011715782
9.6968741e-05
0.00010709869
9.1380333e-05
9.0956665e-05
8.7822747e-05
8.8841591e-05
0.00011046876
0.00010217434
0.00013392157
0.00012097052
9.3479521e-05
0.0030131682
0.0014727007
0.0030497887
0.00090183237
0.0034624458
0.0019994076
0.0029382275
0.022481563
0.018496634
0.0049515436
0.0058335399
0.0036954587
0.0064591748
0.0053573388
0.010574665
0.00053413421
0.0002421773
0.00020913034
0.00050630628
0.00018287765
8.1454509e-05
0.00010150382
0.0001063886
7.4275415e-05
9.6583694e-05
0.00010154172
0.00010851391
0.00011506763
0.00013576864
3.698749e-05
3.8821394e-05
3.9400357e-05
3.6413505e-05
5.2265625e-05
4.7794362e-05
4.8581617e-05
5.1373674e-05
6.5590085e-05
6.9421031e-05
7.0930099e-05
6.4268931e-05
7.067078e-05
6.5365742e-05
9.0192393e-05
9.8143642e-05
4.8708889e-05
5.2253891e-05
4.1038449e-05
3.8906772e-05
0.00016039262
3.3766367e-05
3.4292455e-05
3.3309199e-05
3.322545e-05
3.2599263e-05
3.2804128e-05
4.4183243e-05
4.1419034e-05
4.1322418e-05
4.4136693e-05
8.2804554e-05
4.3255419e-05
4.5855188e-05
3.8631011e-05
3.9075169e-05
4.0791397e-05
8.0693466e-05
6.8975266e-05
7.6707212e-05
7.5519039e-05
7.9595792e-05
8.7401609e-05
3.7311457e-05
3.6625125e-05
3.5980812e-05
3.5881704e-05
4.3003817e-05
4.0365694e-05
4.0702311e-05
4.3448084e-05
3.5174355e-05
3.5405402e-05
8.3662217e-05
7.655142e-05
8.3288122e-05
7.6221679e-05
7.9802587e-05
8.0843333e-05
4.4238177e-05
4.2229881e-05
4.0838992e-05
6.8443797e-05
8.5398416e-05
7.6960969e-05
7.7177806e-05
6.8474212e-05
7.0281228e-05
5.1370851e-05
5.5503626e-05
5.39308e-05
5.7532184e-05
4.0748007e-05
4.2743645e-05
5.7073484e-05
4.36561e-05
4.5718063e-05
5.4066353e-05
6.1832284e-05
5.819412e-05
7.1872027e-05
5.6797419e-05
7.8200278e-05
4.3190739e-05
5.2841601e-05
4.09833e-05
3.6626081e-05
4.8946347e-05
3.926096e-05
3.8869544e-05
4.7143228e-05
6.7662166e-05
6.806888e-05
7.4237959e-05
8.917243e-05
8.5785912e-05
5.3374382e-05
4.2148342e-05
6.713204e-05
3.9492324e-05
5.0875961e-05
6.3647873e-05
3.7497329e-05
4.2960246e-05
3.5926086e-05
5.6067271e-05
7.4956524e-05
6.9902691e-05
6.3875669e-05
4.47747e-05
8.7477523e-05
9.5085397e-05
6.2404804e-05
7.5429123e-05
9.7139764e-05
4.0115509e-05
3.3289203e-05
3.7749058e-05
3.45937e-05
3.7611817e-05
4.1531362e-05
3.8084694e-05
4.0029291e-05
4.2156833e-05
3.5656697e-05
3.3231096e-05
3.3005093e-05
3.7539777e-05
3.717667e-05
4.6437539e-05
3.7856733e-05
3.8682489e-05
4.6751202e-05
3.2872403e-05
3.6254137e-05
3.700511e-05
5.2793062e-05
5.6301399e-05
4.451989e-05
4.6827528e-05
4.9027929e-05
4.521782e-05
5.5287589e-05
5.0287585e-05
6.7007392e-05
6.0727886e-05
6.7651681e-05
7.2597263e-05
5.9572067e-05
6.2710554e-05
7.6534705e-05
6.6194734e-05
6.1197383e-05
6.0560463e-05
8.5137017e-05
8.3016364e-05
9.2722753e-05
4.5975664e-05
4.5600092e-05
4.9229228e-05
5.6200247e-05
3.9128147e-05
4.303895e-05
3.6234842e-05
5.5739434e-05
7.2680634e-05
7.1704102e-05
6.6666095e-05
7.3512678e-05
9.7487787e-05
9.8069572e-05
4.8600448e-05
0.00012146923
9.6995241e-05
9.715969e-05
8.4377421e-05
3.3414606e-05
3.3508721e-05
3.5205315e-05
3.3743369e-05
3.3178668e-05
3.3387352e-05
3.3106435e-05
3.311673e-05
3.2512282e-05
3.2707959e-05
3.2976608e-05
9.3466513e-05
5.0276116e-05
9.1130205e-05
4.3941758e-05
4.6936946e-05
4.1494656e-05
3.9132335e-05
3.9014915e-05
4.116842e-05
4.7269162e-05
4.4004008e-05
6.0833504e-05
9.7311428e-05
5.6197456e-05
7.7376033e-05
4.4734825e-05
4.0870542e-05
4.7791946e-05
5.1171327e-05
3.8162323e-05
3.7098015e-05
3.9514559e-05
4.0572074e-05
4.5369054e-05
5.0495808e-05
4.6840703e-05
6.8287612e-05
6.6121595e-05
7.7777983e-05
7.4157664e-05
8.2787598e-05
7.5923215e-05
9.0299911e-05
3.8326357e-05
3.89806e-05
3.8183987e-05
3.6259344e-05
3.608421e-05
3.742119e-05
3.5758166e-05
3.7311932e-05
4.2236886e-05
4.5056653e-05
3.9950936e-05
3.817583e-05
3.8451269e-05
4.0963108e-05
4.6102794e-05
4.3777916e-05
3.4908395e-05
3.6543991e-05
3.5600232e-05
3.6794469e-05
8.3907467e-05
7.634299e-05
6.9437016e-05
8.2657305e-05
6.9190116e-05
7.5202611e-05
7.8781355e-05
8.1817849e-05
4.3685667e-05
3.9978117e-05
4.1702275e-05
4.1318461e-05
9.3577175e-05
6.7726147e-05
8.4357901e-05
9.8427458e-05
7.6027617e-05
7.5610412e-05
4.3122207e-05
4.6441085e-05
7.8069704e-05
6.7635794e-05
7.2808605e-05
7.9635027e-05
4.90415e-05
6.1940583e-05
5.0626743e-05
5.6297081e-05
6.2584132e-05
0.0061635395
0.00042214387
0.0011041733
0.0020565593
0.0011927536
0.0010206803
0.00051771113
0.00055643006
0.00090539795
0.0015612207
0.00018686197
0.0015919175
0.0011397153
0.00043368723
0.00015749453
0.00054894158
0.001112679
0.00048834851
0.00045699855
0.0017938793
0.0001578373
0.00093881182
0.00092026925
0.00081146803
0.00054482028
0.0013529282
0.0012383932
0.00051808538
0.00098505285
0.0008415523
0.00054494305
0.0004552293
0.00075345222
0.0016787023
2.2272856e-05
2.2258384e-05
7.0693678e-06
7.1017595e-06
1.9926095e-05
1.9990333e-05
1.9873728e-05
1.6026478e-05
1.6065048e-05
1.6080591e-05
1.7661194e-05
2.0141601e-05
1.9834048e-05
2.0048738e-05
2.0211358e-05
2.0032999e-05
2.0996558e-05
2.1064513e-05
0.00018567127
9.2801473e-05
1.1930101e-05
0.00040114276
6.1235499e-06
8.8588294e-06
5.184919e-05
1.759123e-05
8.8685006e-05
4.8350377e-05
1.3843994e-05
7.7530427e-05
3.8696156e-05
1.5283391e-05
0.00018311733
7.4285523e-05
2.6632437e-05
0.00015269354
9.6566936e-05
0.00014196073
0.00013592566
1.5282631e-05
9.9050262e-06
1.164249e-05
1.4494301e-05
1.6406141e-05
6.2644638e-06
6.9297553e-06
7.1602347e-06
5.5562469e-06
1.8591522e-05
9.5089141e-06
2.177591e-05
1.2861369e-05
1.2674289e-05
1.3511516e-05
1.1546001e-05
1.825733e-05
2.2210945e-05
1.1752514e-05
1.4562728e-05
1.4353732e-05
1.9557642e-05
1.9369325e-05
1.1117535e-05
1.1416699e-05
1.1576923e-05
1.155291e-05
1.3209927e-05
1.6487263e-05
1.9044989e-05
2.1368964e-05
1.7003627e-05
1.740921e-05
1.1699596e-05
1.8240046e-05
1.6940132e-05
1.306497e-05
1.6373997e-05
6.5645448e-05
6.8099642e-05
6.328641e-05
1.5014732e-05
1.4752229e-05
1.4456062e-05
1.9470564e-05
1.3681689e-05
1.721308e-05
6.4923257e-05
1.7799208e-05
1.0130425e-05
1.2080858e-05
6.6855711e-05
6.7314463e-05
1.3690069e-05
1.9829668e-05
1.9972181e-05
1.9755412e-05
1.3661903e-05
1.9933676e-05
6.6888591e-05
6.7494502e-05
1.6211764e-05
1.7864777e-05
1.5887722e-05
1.3755752e-05
1.4125376e-05
1.7430152e-05
1.5098888e-05
1.552108e-05
1.3338046e-05
1.284382e-05
1.1603684e-05
1.4810699e-05
1.3130743e-05
1.4595937e-05
1.5701695e-05
1.397946e-05
1.2809527e-05
1.6407785e-05
1.9549016e-05
1.6747433e-05
1.9102609e-05
2.126401e-05
1.843578e-05
1.7868074e-05
2.0435491e-05
1.1231253e-05
5.8864364e-06
1.9674694e-05
1.3492817e-05
1.6938655e-05
1.0522091e-05
1.880171e-05
1.8887582e-05
1.9099536e-05
1.3065327e-05
1.5146259e-05
1.4954791e-05
1.1495876e-05
1.5071779e-05
1.4996176e-05
1.8464511e-05
1.7882808e-05
1.8076563e-05
1.1727205e-05
1.5307546e-05
1.5252495e-05
1.971161e-05
1.9146851e-05
1.3097057e-05
1.5076798e-05
1.498091e-05
1.590988e-05
1.656988e-05
1.5893381e-05
1.4163315e-05
1.5247132e-05
1.5219489e-05
1.7466413e-05
1.7136046e-05
1.7631479e-05
1.4448046e-05
1.5380401e-05
1.5466792e-05
1.3951662e-05
1.5661708e-05
1.5790374e-05
1.3808301e-05
1.5452366e-05
1.563096e-05
1.3735407e-05
1.5646093e-05
1.5688476e-05
1.3650607e-05
1.5614162e-05
1.5592689e-05
1.050288e-05
1.1818655e-05
1.1697007e-05
1.0917565e-05
1.9607997e-05
1.631257e-05
1.6942485e-05
1.6124412e-05
1.7002055e-05
1.9407402e-05
1.6890115e-05
1.6404138e-05
1.8971993e-05
1.6610234e-05
1.9251278e-05
2.072911e-05
1.8817028e-05
1.9912361e-05
1.7525405e-05
1.8155107e-05
1.7042958e-05
1.741713e-05
1.6861223e-05
1.2504933e-05
1.7276614e-05
2.0000212e-05
1.7312676e-05
1.725753e-05
1.9991066e-05
1.729096e-05
1.708328e-05
1.9831686e-05
1.7146294e-05
1.9884385e-05
1.7222657e-05
1.7186862e-05
1.1606487e-05
1.1534712e-05
4.5217409e-05
2.5266499e-05
0.00024880516
6.6030288e-05
0.00014447387
0.00031527137
4.9319405e-05
0.0029414676
0.00035088384
4.2083056e-05
1.7364368e-05
4.0765608e-06
0.00041338985
0.0007431111
0.00088468172
0.00092978178
1.4158515e-05
0.00015375196
5.0690463e-05
2.7528374e-05
6.3355447e-05
8.1824863e-05
0.00012432228
2.9970058e-05
3.5201682e-05
1.7090241e-05
2.5334129e-05
6.2186202e-06
7.2713453e-06
6.2000517e-06
4.48266e-06
6.4110331e-06
5.9916035e-06
5.9436739e-06
2.727153e-06
2.1459551e-06
3.1660521e-06
8.0127225e-05
0.00030774293
0.00010780111
0.00025325914
0.00025413925
1.0560048e-05
7.4109255e-06
1.1808363e-05
1.0995026e-05
1.1051864e-05
1.0393763e-05
7.2893042e-06
8.0943005e-06
1.1142216e-05
1.4518522e-05
1.1185824e-05
1.1543649e-05
1.5601432e-06
1.8283517e-06
2.1930662e-06
1.9110166e-06
1.91035e-06
1.898159e-06
1.902494e-06
1.8797298e-06
1.8722813e-06
1.9089864e-06
1.9116907e-06
1.8708357e-06
1.4775612e-06
1.8102156e-06
2.163432e-06
1.930531e-06
2.2879701e-06
2.8658017e-06
2.2703153e-06
2.7643433e-06
6.4025463e-07
2.4792406e-06
2.103429e-06
8.1634512e-06
2.4058366e-06
1.0733424e-05
1.2901303e-05
3.1745056e-06
3.3599683e-06
2.0489368e-06
8.2426011e-06
2.5481369e-06
1.9553568e-06
1.8824981e-06
3.1169389e-06
3.2179757e-06
1.7219416e-06
1.7197001e-06
2.0701047e-06
2.113799e-06
2.5913431e-06
1.9907146e-06
2.16263e-06
1.7103727e-06
1.7141769e-06
1.6726728e-06
1.7186846e-06
3.355551e-06
3.344197e-06
2.0599687e-06
2.0891072e-06
2.2173608e-06
2.3911432e-06
3.1980796e-06
3.2695513e-06
2.1954522e-06
2.3093995e-06
3.5485054e-06
3.0021838e-06
3.0533092e-06
1.8057008e-06
1.9247761e-06
2.0698109e-06
3.5156627e-06
3.4686485e-06
1.8325917e-06
2.7119666e-06
1.4144488e-05
2.6412034e-06
1.9542646e-06
1.9501983e-06
1.9337752e-06
1.947553e-06
1.7854099e-06
1.9230306e-06
1.9274111e-06
1.9209349e-06
2.8769728e-06
3.2663631e-06
3.5510964e-06
1.9592354e-06
1.9845331e-06
2.1885748e-06
2.0555479e-06
1.9611117e-06
2.2877877e-06
2.7416373e-06
3.3682283e-06
2.9614543e-06
1.947816e-06
1.9403679e-06
1.9835102e-06
2.1018929e-06
2.1345418e-06
2.1590699e-06
2.7398103e-06
1.9239488e-06
1.9375771e-06
1.9175183e-06
2.012729e-06
1.6439227e-06
2.5612832e-06
3.4125462e-06
3.0670438e-06
1.7331518e-06
2.167906e-06
1.9106598e-06
1.9527622e-06
1.9519409e-06
1.9086324e-06
1.8929454e-06
1.9392867e-06
1.9059889e-06
1.9439152e-06
1.8867745e-06
1.9217656e-06
1.9194018e-06
1.8660709e-06
1.9095993e-06
1.9684058e-06
1.9783847e-06
1.9247782e-06
1.9533152e-06
2.1181711e-06
1.3658588e-06
2.0804701e-06
1.773994e-06
2.0519562e-06
2.4114104e-06
2.0420333e-06
2.5604504e-06
2.4292452e-06
3.3436032e-06
3.2539235e-06
2.16482e-06
3.1876696e-06
2.5930256e-06
2.4799844e-06
3.3073824e-06
2.8842005e-06
1.111462e-06
1.9511367e-06
1.7796189e-06
1.3116722e-05
2.4837487e-06
3.3921672e-06
1.3815385e-05
2.4982593e-06
3.3854543e-06
1.3703616e-05
2.4800501e-06
1.386243e-05
2.493458e-06
2.1825438e-06
2.0931885e-06
2.2843172e-06
2.4328092e-06
3.0754287e-06
3.3107239e-06
2.9875668e-06
3.2790494e-06
3.2659047e-06
3.0493811e-06
3.3476082e-06
2.0062667e-06
1.9999898e-06
3.4241805e-06
3.3262628e-06
3.3325885e-06
3.3910692e-06
3.2796756e-06
3.3011288e-06
2.5659417e-06
2.7164653e-06
2.2283901e-06
1.891043e-06
1.919015e-06
1.865446e-06
3.0446373e-06
2.9155376e-06
3.2655651e-06
3.2341015e-06
1.9432901e-06
1.7022402e-06
1.9424383e-06
1.7203694e-06
2.0642787e-06
1.7552872e-06
2.117143e-06
1.8589828e-06
2.1324088e-06
2.1547001e-06
2.2754525e-06
1.888047e-06
2.4584446e-06
2.730574e-06
1.9292027e-06
1.7028513e-06
1.9338334e-06
1.7176571e-06
1.914667e-06
1.6987008e-06
2.0189652e-06
1.9420606e-06
3.5037122e-06
3.3553302e-06
3.3258455e-06
3.6819042e-06
3.4169656e-06
3.2513469e-06
3.2445052e-06
3.3957983e-06
3.3082341e-06
3.3152359e-06
3.3758151e-06
3.3020242e-06
3.2964987e-06
2.0492187e-06
2.0537395e-06
2.5185335e-06
2.061479e-06
2.1057397e-06
1.9305569e-06
2.0949494e-06
2.6566239e-06
2.9613941e-06
3.2120786e-06
3.1487135e-06
2.9855371e-06
3.0356213e-06
2.4396885e-06
3.0281386e-06
3.1360268e-06
2.4905581e-06
3.0445192e-06
3.0720604e-06
2.5063116e-06
3.0524163e-06
2.4994806e-06
3.0367232e-06
3.0434829e-06
3.0257798e-06
2.4854466e-06
3.0238091e-06
3.0311206e-06
2.4887747e-06
3.0261929e-06
0.0013158127
0.00086420801
0.00047385424
0.00077752626
0.00023240329
0.00029356716
0.00019432348
0.00035174213
0.00021008569
0.00025971863
0.00024122169
0.00024789519
0.00028169976
0.0004230067
0.00025144007
0.00027504106
0.00082813904
0.00053614092
0.0013689871
0.00038590696
0.00066970622
0.00037702757
0.00039363801
0.00049561629
0.00031045431
0.00030338244