/*--------------------------------*- C++ -*----------------------------------*\
  =========                 |
  \\      /  F ield         | OpenFOAM: The Open Source CFD Toolbox
   \\    /   O peration     | Website:  https://openfoam.org
    \\  /    A nd           | Version:  8
     \\/     M anipulation  |
\*---------------------------------------------------------------------------*/
/*   Windows 32 and 64 bit porting by blueCAPE: http://www.bluecape.com.pt   *\
|  Based on Windows porting (2.0.x v4) by Symscape: http://www.symscape.com   |
\*---------------------------------------------------------------------------*/
FoamFile
{
    version     2.0;
    format      ascii;
    class       scalarListList;
    location    "constant/vegetation";
    object      kcLAIboundary;
}
// * * * * * * * * * * * * * * * * * * * * * * * * * * * * * * * * * * * * * //


5
(

261
(
0
0
0
0
0
0
1.8641185
0.67758126
0
0.098608382
0
0.33036498
0
0
0.00079276733
2.4386582
1.1054972
0.0055976879
0.70194069
0.37016231
0.0088365735
0.0013219754
0.036874654
0
2.0879259
0
0.042565961
0
0
0
0
0
0
0.00080953719
0.0069383688
0.0039965826
0.0008104083
0
0
0
0
0
0
0
0
0
0
0
0
0
0
0
0
0
0
0
0
0
0
0
0
0
0
0
0
0
0
0
0
0
0
0
0
0
0
0
0
0
0
0
0
0
0
0
0
0
0
0.019023132
0.0019893534
0
0.018074929
0.00083486027
0.00031000512
0
0
0
0
0
0
0
0
0
0
0
0
0
0
0
0
0
0
0
0
0
0
0
0
0
0
0
0
0
0
0
0
0
0
0
0
0
0
0
0
0
0
0
0
0
0
0
0
0
0
0
0
0
0
0
0
0
0
0.013307211
0.0076377672
0
0.0001270504
0.012282574
0.0084945166
0
0.0065367055
0.0002816301
0.001111305
0
0
0
0
0
0
0
0
0
0
0
1000
0
0
0
0
0
0
0
0
0
0
0
0
0
0
0
0
0
0
0
0
0
0
0
0
0
0
0
0
0
0
0
0
0
0
0
0
0
0
0
0
0
0
0
0
0
0
0
0
0
0
0
0
0
0
0
0
0
0
0
0
0
0
0
0
0
0
0
0
0
0
0
0
0
0
0
0
0.59760896
0.78132272
1.3927577
1.9243293
0.36354769
0.90869476
1.7908894
0.71088745
0.27461791
0.22991679
0.43082864
0.2444668
)


261
(
0
0
0
0
0
0
2.232538
1.7423123
0
0.10850369
0
0.99617348
0
0
0.0022442927
2.0834765
1.0793657
0.0056676633
0.22708262
1.7652069
0.50738299
0.075201095
0.68711656
0
1.7577408
5.4734541e-05
0.66094251
0
0
0
0
0
0
0.020000176
0.080541921
0.07737231
0.016635409
0
0
0
0
0
0
0
0
0
0
0
0
0
0
0
0
0
0
0.017410962
0.016160122
0.0070943196
0.039618858
0
0
0
0
0
0
0
0
0
0
0
0
0
0
0
0
0
0
0
0
0
0
0
0
0
0
0
0
0.3035225
0.074375557
0.0061208237
0.26858728
0.082563726
0.0045174786
0
0
0
0
0
0
0
0
0
0
0
0
0
0
0.0016135083
0.053493068
0.00063838493
0
0
0
0.0051618122
0
0
0.059866771
0
0
0
0
0
0
0
0
0
0
0
0
0
0
0
0
0
0
0
0
0
0
0
0
0
0
0
0
0
0
0
0
0
0
0.11749193
0.095345085
0.0237382
0.00633684
0.13140811
0.12854702
0.069608696
0.10639488
0.0058048606
0.028966862
0
0
0
0
0
0
0
0
0
0
0
1000
0
0
0
0
0
0
0
0
0
0
0
0
0
0
0
0
0
0
0
0
0
0
0
0
0
0
0
0
0.017101737
0.034369706
0
0.00075741944
0.00015202194
0
0.022875027
0.003461752
0
0.017877834
0.00097529005
0
0.057247066
0.038303652
0
0
0
0
0
0
0
0
0
0
0
0
0
0
0
0
0
0
0
0
0
0
0
0
0
0
0
0
0
0
0
0
0
0
1.1795704
0.85416096
1.4092109
2.1649689
0.35354107
1.2338458
1.4669486
0.56518672
0.49007552
0.24467148
0.42144169
0.21605521
)


261
(
0
0
0
0
0
0
2.1582727
2.0032062
0
0.088408109
0
1.1393765
0
2.5360499e-05
0.00031504053
1.5836445
0.85590415
0.43137209
0.070584799
2.1804001
1.2511381
0.44124404
1.8474212
0
1.4349076
0
2.1657322
0
0
0
0
0
0
0.68912844
1.3270448
1.0949827
0.800367
0
0
0
0
0
0
0
0
0
0
0
0
0
0
0
0
0.002763896
0.00092903339
0.31158001
0.21274936
0.13985849
0.44380732
0
0
0
0
0
0
0
0
0.006542245
0.0044989283
0.001768811
0.002907674
0
0
0
0
0
0
0.040251679
0
0
0.074175326
0
0
0
0
0
0
1.9511526
1.0801854
0.16359262
1.8188355
1.0934463
0.25889577
0
0
0
0
0
0
0
0
0
0
0
0
0
0
0.041377558
0.80968526
0.032967706
0
0
0
0.155856
0.01397452
0.0040023329
0.82237973
0
0
0
0
0
0
0
0
0
0
0
0
0
0
0
0
0.010134813
0.0033524341
0
0
0
0.054372864
0
0
0
0
0.071534545
0
0
0
0
0
0
0
1.6643158
1.3740273
0.56372872
0.17470552
1.5793836
1.5567526
0.86516501
1.3376148
0.20761412
0.8808979
0
0
0
0
0
0
0
0
0
0
0
1000
0
0
0
0
0
0
0.0085910911
0.00011291522
0
0
0
0
0
0
0
0
0
0
0
0
0
0
0
0
0
0
0
0
0.29303318
0.549092
0.00065970796
0.021728557
0.0065591089
0
0.45258445
0.11822209
0.013030815
0.27355443
0.050483807
0.0091786463
0.66128509
0.54569995
0
0
0
0
0
0
0
0
0
0
0
0
0
0
0.00014525467
0
9.6476855e-05
0.0099166545
0.0064740376
0.0069688953
0.0022867162
0.00080516988
0
0.0029923771
0
0
0
0.005268036
0.0024419803
0
0
0
0
0
1.3805203
0.86672533
1.2329912
2.0110752
0.42329895
1.4971169
1.1155728
0.4700931
0.68835362
0.24285472
0.39534278
0.23188933
)


261
(
0
0
0
0
0
0
2.2029694
2.0606631
0
0.07458772
0
1.3100369
1000
0.0010956457
0.018573468
1000
0.91253848
1000
1000
2.1834095
1.7003346
1.2346933
1.9807635
0
1.7216947
0.007317172
2.0742601
0
0
0.00069655675
0.00018375358
0.00012111772
0.001496615
1.5574133
1.935439
1.9195935
1.6023474
0
0
0
0
0
0
0
0
0
0
0
0
0
0
0
0
0
0
1.0954118
1.039273
0.85733737
1.3369338
0
0
0
0
0
0
0.0017601657
0.0020190356
0.10008061
0.069132274
0.046992993
0.052914498
0
0
0
0
0
0
0.35237913
0
0
0.35727672
0
0
0
0
0
0
2.0258073
1.9630887
0.9059628
1.9999446
1.9781028
1.1983171
0
0
0
0
0
0
0
0
0
0
0
0
0
0
0.8091377
1.736348
0.33170043
0
0
0.18419539
0.80458128
0.80770824
0.3919895
1.7353951
0
0
0
0
0
0
0
0
0
0
0
0.0034470526
0
0
0.10187785
0.0073435041
0.467663
0.21651023
0.014862922
0.027873156
0
0.36814757
0
9.1507875e-05
0
0
0.37045592
0.0021699356
0
0
0
0
0
0
1.9982752
1.981684
1.5238757
1.0150603
1.9857812
1.9526139
1.9053376
1.9811556
1.1136383
1.6567697
0
0
0
0
0
0
0
0
0
0
0
1000
0
0
0
0
0
0.0040727393
0.47287648
0.022584929
0
0
0
0
0
0
0
0
0
0
0
0
0
0
0
0
0
0
0
0
1.1364375
1.4362414
0
0.29914974
0.25305904
0
1.3184685
0.68806001
0.73044198
1.1417674
0.55511165
0.60625834
1.6348847
1.4401461
0
0
0
0
0
0
0
0
0
0
0
0
0.0015916823
0.0015606675
0.022421804
0.0012376524
0.015402814
0.41706546
0.12816796
0.34281812
0.044877076
0.030408157
0.023777407
0.053125632
0.02734873
0
0
0.13724755
0.041924411
0
0
0
0
0
1.6003112
0.98830275
1.3167862
1.9715398
0.51325007
1.5308257
1.6537271
0.49494835
0.95682441
0.37645807
0.44760867
0.20232462
)


261
(
0
0
1000
1000
1000
0
1000
1000
0
1000
0
1000
1000
1000
1000
1000
1000
1000
1000
1000
1000
1000
1000
1000
1000
1000
1000
0
0
1000
1000
1000
1000
1000
1000
1000
1000
0
0
0
0
0
0
0
0
0.060763974
0.069115191
0.023578032
0.013479295
0
0
0
0
0.20697733
0.18587376
1.7537521
1.6320359
1.5188332
1.8851451
0
0
0.0056984755
0.0044760156
0.013787225
0.017900225
0.076886595
0.045176345
0.81159743
0.72936402
0.47795692
0.54028508
0
0
0
0
1000
1000
1000
1000
1000
1000
0
0
0
0
0
0
1000
1000
1000
1000
1000
1000
0
0
0
0
0
0
0
0
0
0.0033299521
0
0
0
0
1.2078887
1.8938472
0.88583896
0
0
0.59708721
1.5672453
1.378779
1.0571429
2.1207101
0
0
0
0
0
0
0
0
0
0
0.0089519173
0.029731555
0
0
0.44395226
0.089154519
1.0958191
0.8017669
0.17085471
0.2717781
1000
1000
1000
1000
1000
1000
1000
1000
0
0
0
0
0
0
1000
1000
1000
1000
1000
1000
1000
1000
1000
1000
0
0
0
0
0
0
0
0
0
1000
1000
1000
0
0
0
0.00013784295
0
0.025226516
0.95735447
0.23275708
0
0
0
0
0
0.052228306
0.0745935
0
0
0.037437136
0
0.006549875
0
0.00066615443
5.5662127e-05
0.0019694237
0
0
0
0
1.4433071
1.6752903
0.21968431
0.79859405
0.70001289
0.16296359
1.9782072
1.4099283
1.3745433
1.6336405
1.2383573
1.279535
2.1293553
1.8802972
0
0
0
0
0
0
0.0054244227
0
0.0017228962
0.0052476623
0.02327557
0.017581174
0.030095624
0.11945927
0.29472532
0.022357484
0.17909606
1.0930534
0.81289112
1.0041431
0.54700562
0.34105673
0.24302887
0.53967528
0.27503943
0.0044504932
0.014870562
0.7058576
0.46659204
0
0
0
0
0
1.5534715
1000
1000
1000
0.55186711
1000
1000
1000
0.93267084
0.32336238
0.51804591
0.23372043
)

)


// ************************************************************************* //
