/*--------------------------------*- C++ -*----------------------------------*\
  =========                 |
  \\      /  F ield         | OpenFOAM: The Open Source CFD Toolbox
   \\    /   O peration     | Website:  https://openfoam.org
    \\  /    A nd           | Version:  8
     \\/     M anipulation  |
\*---------------------------------------------------------------------------*/
/*   Windows 32 and 64 bit porting by blueCAPE: http://www.bluecape.com.pt   *\
|  Based on Windows porting (2.0.x v4) by Symscape: http://www.symscape.com   |
\*---------------------------------------------------------------------------*/
FoamFile
{
    version     2.0;
    format      ascii;
    class       scalarListList;
    location    "constant/vegetation";
    object      solarLoadFineFaces;
}
// * * * * * * * * * * * * * * * * * * * * * * * * * * * * * * * * * * * * * //


5
(

458
(
717.08284
717.08284
717.08284
717.08284
717.08284
717.08284
717.08284
717.08284
717.08284
717.08284
111.17137
717.08284
111.17137
717.08284
717.08284
717.08284
717.08284
717.08284
717.08284
717.08284
717.08284
717.08284
717.08284
717.08284
717.08284
62.585472
717.08284
717.08284
717.08284
717.08284
62.585472
717.08284
717.08284
717.08284
717.08284
717.08284
717.08284
717.08284
717.08284
717.08284
717.08284
717.08284
717.08284
717.08284
717.08284
717.08284
717.08284
717.08284
717.08284
62.585472
717.08284
717.08284
88.878074
88.878074
62.585472
62.585472
62.585472
88.878074
717.08284
717.08284
717.08284
717.08284
717.08284
717.08284
717.08284
717.08284
717.08284
717.08284
717.08284
717.08284
717.08284
111.17137
88.878074
717.08284
717.08284
717.08284
717.08284
717.08284
717.08284
237.38758
717.08284
717.08284
717.08284
717.08284
717.08284
717.08284
62.585472
717.08284
717.08284
717.08284
717.08284
717.08284
717.08284
717.08284
717.08284
717.08284
717.08284
717.08284
717.08284
717.08284
717.08284
717.08284
717.08284
717.08284
717.08284
717.08284
717.08284
717.08284
717.08284
717.08284
717.08284
717.08284
717.08284
717.08284
717.08284
717.08284
717.08284
717.08284
717.08284
717.08284
717.08284
717.08284
717.08284
80.639504
80.639504
80.639504
80.639504
80.639504
80.639504
80.639504
80.639504
80.633652
80.624004
80.639504
80.639504
80.639504
80.639504
80.639504
80.639504
80.639504
80.639504
80.639504
80.639504
80.639504
80.639504
80.639504
80.639504
80.639504
80.639504
80.639504
80.639504
80.639504
80.639504
80.639504
80.639504
80.639504
80.639504
80.639504
80.639504
80.639504
80.639504
80.639504
80.639504
80.639504
80.639504
80.639504
80.639504
80.639504
80.639504
80.639504
80.639504
80.639504
80.639504
80.639504
80.639504
80.639504
80.632695
80.639504
80.639504
80.639504
80.639504
80.639504
80.639504
80.639504
80.639504
80.639504
80.639504
80.649551
80.639504
80.631678
80.639504
80.639504
80.639504
80.639504
80.639504
80.639504
80.639504
80.639504
80.639504
80.639504
80.628271
80.639504
80.639504
80.639504
80.639504
80.639504
80.639504
80.639504
80.639504
80.639504
80.639504
80.639504
80.639504
80.639504
80.639504
80.639504
80.639504
80.639504
80.639504
80.639504
80.639504
80.639504
80.639504
80.639504
80.639504
80.639504
80.639504
80.639504
80.639504
80.639504
80.639504
80.639504
80.639504
80.639504
80.639504
80.639504
80.639504
80.639504
80.639504
80.639504
80.639504
80.639504
80.639504
80.639504
80.639504
80.639504
80.639504
80.639504
80.639504
80.639504
80.639504
80.639504
80.639504
80.639504
80.639504
80.649973
80.639504
80.656428
80.643261
80.639504
80.639504
80.639504
80.639504
80.639504
80.639504
80.639504
125.52118
80.639504
80.639504
80.639504
80.639504
80.639504
80.639504
80.639504
80.639504
80.639504
80.639504
80.639504
80.639504
80.639504
80.639504
80.639504
80.639504
80.639504
80.639504
80.639504
80.639504
80.639504
80.639504
80.639504
80.639504
80.639504
80.639504
80.639504
80.639504
80.639504
80.639504
80.639504
80.639504
80.639504
80.639504
80.639504
80.639504
80.639504
80.639504
80.639504
80.639504
80.639504
80.639504
80.639504
80.639504
80.639504
80.639504
80.639504
80.639504
80.639504
80.639504
80.639504
80.639504
80.639504
80.639504
80.639504
80.639504
80.639504
80.639504
80.639504
80.639504
80.639504
80.639504
80.639504
80.639504
80.639504
80.639504
80.639504
80.639504
80.639504
80.639504
80.639504
80.639504
80.639504
80.639504
80.639504
80.639504
0
0
140.97677
0
0
0
0
0
0
546.41614
282.64294
463.01608
0
0
3.0292884
139.69471
0
0
0
0
0
0
0
0
0
0
0
0
0
0
150.42026
14.105032
0
78.563838
0
0
0
0
0
28.509357
30.651078
28.479547
0
269.48488
357.3045
615.28053
711.60155
525.62129
283.13693
417.84207
116.68894
96.340687
161.2898
164.26756
226.04399
295.04795
218.09183
373.63895
297.39071
443.89729
704.49968
641.13545
754.14446
615.00904
668.30256
646.44325
563.93172
68.523957
76.477668
32.72932
90.187097
22.267212
155.24406
0
0
0
0
304.43387
411.26505
576.03225
484.66258
0
0
0
70.953996
0.015390147
33.940491
27.559406
147.93801
153.7519
164.07958
160.80714
0
0
121.2134
0
389.16526
477.73257
655.49115
449.22254
254.63077
8.3532232
223.34114
333.56617
298.86725
307.3899
303.3353
309.16111
439.37808
402.20857
428.8243
543.96817
724.97254
225.62505
483.05258
)


458
(
585.76158
585.76158
585.76158
585.76158
585.76158
585.76158
62.826368
102.57565
585.76158
585.76158
62.826368
585.76158
62.826368
585.76158
585.76158
585.76158
585.76158
585.76158
102.57565
585.76158
102.57565
585.76158
585.76158
585.76158
585.76158
72.925353
585.76158
585.76158
585.76158
585.76158
72.925353
100.2539
585.76158
585.76158
585.76158
585.76158
585.76158
585.76158
585.76158
585.76158
585.76158
585.76158
585.76158
585.76158
585.76158
585.76158
585.76158
585.76158
585.76158
72.925353
585.76158
585.76158
101.00521
101.00521
72.925353
72.925353
585.76158
101.00521
585.76158
585.76158
585.76158
585.76158
585.76158
585.76158
585.76158
585.76158
585.76158
100.2539
585.76158
585.76158
585.76158
62.826368
101.00521
102.57565
585.76158
585.76158
585.76158
585.76158
199.04823
585.76158
585.76158
585.76158
585.76158
585.76158
585.76158
585.76158
72.925353
585.76158
585.76158
585.76158
585.76158
585.76158
585.76158
585.76158
585.76158
585.76158
585.76158
585.76158
585.76158
585.76158
585.76158
585.76158
585.76158
585.76158
585.76158
585.76158
585.76158
585.76158
585.76158
585.76158
585.76158
585.76158
585.76158
585.76158
585.76158
585.76158
585.76158
585.76158
585.76158
585.76158
585.76158
585.76158
585.76158
227.80796
227.80796
227.80796
227.80796
227.80796
227.80796
227.80796
227.80796
227.80307
227.7953
227.80796
227.80796
227.80796
227.80796
227.80796
227.80796
227.80796
227.80796
227.80796
227.80796
227.80796
227.80796
227.80796
227.80796
227.80796
227.80796
227.80796
227.80796
227.80796
227.80796
227.80796
227.80796
227.80796
227.80796
227.80796
227.80796
227.80796
227.80796
227.80796
227.80796
227.80796
227.80796
227.80796
227.80796
227.80796
227.80796
227.80796
227.80796
227.80796
227.80796
227.80796
227.80796
227.80796
227.80226
227.80796
227.80796
227.80796
227.80796
227.80796
227.80796
227.80796
227.80796
227.80796
227.80796
227.81556
227.80796
227.80206
227.80796
227.80796
227.80796
227.80796
227.80796
227.80796
227.80796
227.80796
227.80796
227.80796
227.79891
227.80796
227.80796
227.80796
227.80796
227.80796
227.80796
227.80796
227.80796
227.80796
227.80796
227.80796
227.80796
227.80796
227.80796
227.80796
227.80796
227.80796
227.80796
227.80796
227.80796
227.80796
227.80796
227.80796
227.80796
227.80796
227.80796
227.80796
227.80796
227.80796
227.80796
227.80796
227.80796
227.80796
227.80796
227.80796
227.80796
227.80796
227.80796
227.80796
227.80796
227.80796
227.80796
227.80796
227.80796
227.80796
227.80796
227.80796
227.80796
227.80796
227.80796
227.80796
227.80796
227.80796
227.80796
227.8164
227.80796
227.82178
227.81137
227.80796
227.80796
227.80796
227.80796
227.80796
227.80796
227.80796
262.88727
227.80796
227.80796
227.80796
227.80796
227.80796
227.80796
227.80796
227.80796
227.80796
227.80796
227.80796
227.80796
227.80796
227.80796
227.80796
227.80796
227.80796
227.80796
227.80796
227.80796
227.80796
227.80796
227.80796
227.80796
227.80796
227.80796
227.80796
227.80796
227.80796
227.80796
227.80796
227.80796
227.80796
227.80796
227.80796
227.80796
227.80796
227.80796
227.80796
227.80796
227.80796
227.80796
227.80796
227.80796
227.80796
227.80796
227.80796
227.80796
227.80796
227.80796
227.80796
227.80796
227.80796
227.80796
227.80796
227.80796
227.80796
227.80796
227.80796
227.80796
227.80796
227.80796
227.80796
227.80796
227.80796
227.80796
227.80796
227.80796
227.80796
227.80796
227.80796
227.80796
227.80796
227.80796
227.80796
227.80796
0
0
86.001604
0
0
0
0
0
0
400.56322
201.76939
331.99836
0
0
13.251525
85.762123
0
0
0
0
0
0
0
0
0
0
0
0
0
0
213.22086
70.365983
0
42.256631
0
0
0
0
0
0
0
0
0
88.630938
155.98375
468.56126
542.36233
324.0475
202.95684
315.6166
0
0
0
0
43.614324
107.42242
83.886752
209.69606
333.2611
456.24535
646.3066
549.38214
635.63485
578.45937
609.90501
538.58311
516.95564
0
13.547906
34.444772
80.430729
14.205244
135.02983
0
0
0
0
256.91589
343.6629
479.00157
447.16488
0
0
0
15.377011
5.3748171
115.31898
64.524027
210.93699
132.32002
181.02551
176.86993
0
0
0
0
284.03816
285.74588
487.49769
265.70162
60.397889
0
88.217288
181.34807
334.24459
298.09692
254.50748
298.05455
364.37138
416.04703
392.3772
549.46704
607.93898
92.819136
423.1377
)


458
(
536.2201
536.2201
536.2201
536.2201
536.2201
536.2201
61.946556
72.3372
536.2201
536.2201
61.946556
536.2201
61.946556
536.2201
536.2201
536.2201
536.2201
536.2201
72.3372
72.3372
72.3372
536.2201
536.2201
536.2201
536.2201
110.04619
536.2201
536.2201
536.2201
536.2201
110.04619
60.590894
536.2201
153.45488
171.60035
536.2201
536.2201
60.590894
84.531438
536.2201
536.2201
536.2201
536.2201
536.2201
536.2201
536.2201
536.2201
536.2201
536.2201
110.04619
536.2201
536.2201
127.69404
127.69404
110.04619
536.2201
536.2201
536.2201
536.2201
536.2201
536.2201
536.2201
536.2201
536.2201
536.2201
536.2201
536.2201
60.590894
536.2201
536.2201
536.2201
61.946556
127.69404
72.3372
536.2201
536.2201
536.2201
536.2201
227.8393
536.2201
536.2201
536.2201
536.2201
536.2201
536.2201
536.2201
110.04619
536.2201
536.2201
536.2201
536.2201
536.2201
536.2201
536.2201
536.2201
536.2201
536.2201
536.2201
536.2201
536.2201
536.2201
536.2201
60.590894
61.486185
61.486185
60.590894
61.486185
61.486185
536.2201
536.2201
536.2201
536.2201
536.2201
536.2201
536.2201
536.2201
536.2201
84.531438
84.531438
84.531438
536.2201
536.2201
536.2201
381.92334
381.92334
381.92334
381.92334
381.92334
381.92334
381.92334
381.92334
381.91862
381.91176
381.92334
381.92334
381.92334
381.92334
381.92334
381.92334
381.92334
381.92334
381.92334
381.92334
381.92334
381.92334
381.92334
381.92334
381.92334
381.92334
381.92334
381.92334
381.92334
381.92334
381.92334
381.92334
381.92334
381.92334
381.92334
381.92334
381.92334
381.92334
381.92334
381.92334
381.92334
381.92334
381.92334
381.92334
381.92334
381.92334
381.92334
381.92334
381.92334
381.92334
381.92334
381.92334
381.92334
381.91783
381.92334
381.92334
381.92334
381.92334
54.275195
129.67541
381.92334
61.953519
381.92334
381.92334
381.92899
381.92334
381.91904
381.92334
381.92334
381.92334
381.92334
381.92334
381.92334
381.92334
381.92334
381.92334
381.92334
381.91535
381.92334
381.92334
381.92334
381.92334
381.92334
381.92334
381.92334
381.92334
381.92334
381.92334
381.92334
381.92334
381.92334
381.92334
381.92334
381.92334
381.92334
381.92334
381.92334
381.92334
381.92334
381.92334
381.92334
381.92334
381.92334
381.92334
381.92334
381.92334
381.92334
381.92334
381.92334
381.92334
381.92334
381.92334
381.92334
381.92334
381.92334
381.92334
381.92334
381.92334
381.92334
381.92334
381.92334
381.92334
72.305783
96.659318
381.92334
381.92334
78.715203
80.516917
381.92334
100.24379
381.92334
381.92334
381.93082
381.92334
381.93598
381.9272
381.92334
381.92334
381.92334
381.92334
381.92334
381.92334
381.92334
411.29886
381.92334
381.92334
381.92334
381.92334
381.92334
381.92334
381.92334
381.92334
381.92334
381.92334
381.92334
381.92334
381.92334
381.92334
381.92334
381.92334
381.92334
381.92334
381.92334
381.92334
381.92334
381.92334
381.92334
381.92334
381.92334
381.92334
381.92334
381.92334
381.92334
381.92334
381.92334
381.92334
381.92334
381.92334
381.92334
381.92334
381.92334
381.92334
381.92334
381.92334
381.92334
381.92334
381.92334
381.92334
381.92334
381.92334
381.92334
381.92334
381.92334
381.92334
381.92334
381.92334
381.92334
381.92334
381.92334
381.92334
381.92334
381.92334
381.92334
381.92334
381.92334
381.92334
381.92334
381.92334
381.92334
381.92334
381.92334
381.92334
381.92334
381.92334
381.92334
381.92334
381.92334
381.92334
381.92334
381.92334
0
0
34.670592
0
0
0
0
0
0
307.08836
140.69846
242.85077
0
0
0
35.312459
0
0
0
0
0
0
0
0
0
0
0
0
0
0
281.76913
155.7418
0
11.070528
0
0
0
0
0
0
0
0
0
0
0
395.27819
451.94735
181.57878
142.61803
249.07065
0
0
0
0
76.853539
33.629431
0
79.65286
391.64263
508.78723
664.78986
533.68726
599.48081
613.56632
619.69228
494.64839
523.60288
0
0
27.361148
82.147065
56.83932
119.59572
0
0
0
0
231.19531
310.43131
436.64376
453.21879
0
0
0
0
0
189.47266
92.317161
279.39459
115.50651
203.97945
198.55037
0
46.142029
0
0
231.57511
142.3094
387.07239
137.03764
0
0
0
57.77297
392.29455
311.15856
227.35728
309.48469
327.12421
464.66744
392.53708
609.00462
566.28025
4.416714
424.99099
)


458
(
411.8157
411.8157
411.8157
411.8157
411.8157
411.8157
45.495186
52.452753
411.8157
411.8157
45.495186
411.8157
45.495186
411.8157
411.8157
411.8157
411.8157
411.8157
52.452753
52.452753
52.452753
411.8157
411.8157
411.8157
411.8157
0
411.8157
411.8157
0
0
0
46.393828
411.8157
75.206775
111.11204
75.206775
411.8157
46.393828
56.815685
411.8157
411.8157
411.8157
411.8157
411.8157
411.8157
411.8157
411.8157
382.21688
0
0
0
0
411.8157
73.617386
0
0
0
73.617386
411.8157
411.8157
411.8157
411.8157
411.8157
411.8157
411.8157
411.8157
411.8157
46.393828
411.8157
411.8157
411.8157
45.495186
73.617386
52.452753
0
0
0
411.8157
411.8157
411.8157
0
0
0
165.34554
0
0
0
411.8157
411.8157
411.8157
411.8157
411.8157
411.8157
411.8157
411.8157
411.8157
411.8157
411.8157
411.8157
411.8157
411.8157
411.8157
46.393828
51.74438
51.74438
46.393828
51.74438
51.74438
411.8157
411.8157
411.8157
411.8157
411.8157
411.8157
411.8157
411.8157
411.8157
56.815685
56.815685
56.815685
75.206775
75.206775
75.206775
471.50949
471.50949
471.50949
471.50949
99.337777
68.067525
69.15468
94.972923
471.5055
471.5006
471.50949
471.50949
471.50949
471.50949
471.50949
471.50949
471.50949
471.50949
471.50949
471.50949
471.50949
471.50949
471.50949
471.50949
471.50949
471.50949
471.50949
166.77844
471.50949
123.84186
471.50949
471.50949
471.50949
471.50949
471.50949
471.50949
471.50949
471.50949
471.50949
471.50949
471.50949
471.50949
471.50949
471.50949
471.50949
471.50949
471.50949
471.50949
471.50949
471.50949
471.50949
471.50949
471.50949
471.50482
471.50949
471.50949
471.50949
471.50949
62.186127
66.21126
471.50949
63.815406
65.224583
471.50949
471.51185
471.50949
471.50783
471.50949
471.50949
471.50949
471.50949
471.50949
471.50949
471.50949
471.50949
471.50949
471.50949
471.50379
471.50949
83.062325
471.50949
471.50949
471.50949
471.50949
471.50949
471.50949
471.50949
83.141513
471.50949
471.50949
471.50949
471.50949
471.50949
471.50949
471.50949
471.50949
471.50949
471.50949
471.50949
471.50949
471.50949
471.50949
471.50949
471.50949
471.50949
471.50949
471.50949
471.50949
471.50949
471.50949
471.50949
471.50949
471.50949
471.50949
471.50949
471.50949
471.50949
471.50949
471.50949
471.50949
471.50949
471.50949
63.922028
64.991418
102.72582
471.50949
64.72568
66.908454
70.147603
65.025769
471.50949
89.942406
471.51486
471.50949
471.51919
471.51358
471.50949
471.50949
471.50949
471.50949
471.50949
471.50949
471.50949
490.26353
471.50949
471.50949
471.50949
471.50949
471.50949
471.50949
471.50949
471.50949
471.50949
471.50949
471.50949
471.50949
471.50949
471.50949
471.50949
471.50949
471.50949
471.50949
471.50949
471.50949
471.50949
471.50949
471.50949
471.50949
471.50949
471.50949
471.50949
471.50949
151.33588
112.13436
471.50949
471.50949
471.50949
471.50949
126.14988
471.50949
471.50949
150.53142
471.50949
471.50949
91.932493
111.69737
471.50949
471.50949
471.50949
471.50949
471.50949
471.50949
471.50949
471.50949
471.50949
471.50949
471.50949
471.50949
471.50949
471.50949
471.50949
471.50949
471.50949
471.50949
471.50949
471.50949
471.50949
471.50949
471.50949
471.50949
471.50949
471.50949
471.50949
471.50949
471.50949
471.50949
471.50949
471.50949
471.50949
471.50949
0
0
0
0
0
0
0
0
0
164.51127
50.59114
112.7085
0
0
0
0
0
0
0
0
0
0
0
0
0
0
0
0
0
0
295.70308
204.76869
0
28.705033
0
0
0
0
0
0
0
0
0
0
0
271.64837
298.57709
19.002217
52.914541
138.57161
0
0
0
0
154.28006
119.48419
0
38.200543
380.07297
475.70094
583.17247
444.63696
475.27256
560.03464
532.18559
372.34778
444.44605
0
0
0
69.05935
78.1966
75.510296
0
0
0
0
161.24432
222.28281
323.04914
382.66491
0
0
0
0
0
222.33111
93.887907
293.57863
70.704843
184.49165
178.61607
0
138.20601
0
0
156.06719
12.16592
228.94591
1.2205766
0
0
0
46.111384
380.30881
266.81706
156.60332
263.81237
232.92037
433.5844
324.57042
570.43153
438.17497
62.058877
371.82245
)


458
(
284.42858
0
0
0
284.42858
0
0
0
284.42858
0
0
0
0
0
284.42858
284.42858
0
0
0
0
0
0
0
0
0
0
0
0
0
0
0
0
0
0
0
0
0
0
0
0
0
0
284.42858
284.42858
0
0
0
0
0
0
0
0
0
0
0
0
0
0
284.42858
284.42858
0
0
0
0
0
284.42858
284.42858
0
0
0
0
0
0
0
0
0
0
0
0
0
0
0
0
0
0
0
0
284.42858
284.42858
284.42858
284.42858
284.42858
284.42858
284.42858
284.42858
0
0
0
0
0
0
0
0
0
0
0
0
0
0
0
0
0
0
0
0
0
0
0
0
0
0
0
0
0
0
0
0
0
0
0
0
524.72426
524.72141
524.72754
524.72754
524.72754
524.72754
524.72754
524.72754
524.72754
524.72754
524.72754
524.72754
524.72754
524.72754
524.72754
524.72754
524.72754
524.72754
90.842483
102.60055
114.89813
79.657329
524.72754
524.72754
524.72754
524.72754
524.72754
524.72754
524.72754
524.72754
233.05669
524.72754
524.72754
524.72754
524.72754
524.72754
524.72754
524.72754
0
0
0
0
0
0
524.72754
524.72368
524.72754
524.72754
524.72754
524.72754
0
0
0
0
0
0
524.72633
524.72754
524.72875
524.72754
524.72754
524.72754
524.72754
524.72754
524.72754
524.72754
524.72754
524.72754
524.72754
524.72422
156.80303
78.96715
524.72754
524.72754
524.72754
524.72754
109.46817
132.17148
524.72754
62.939192
524.72754
524.72754
524.72754
524.72754
524.72754
524.72754
524.72754
524.72754
524.72754
524.72754
524.72754
524.72754
524.72754
524.72754
524.72754
524.72754
175.39842
524.72754
524.72754
524.72754
0
0
0
0
0
0
0
0
524.72754
524.72754
524.72754
524.72754
524.72754
524.72754
0
0
0
0
0
0
0
0
0
0
524.73071
524.72754
524.73421
524.73196
524.72754
524.72754
524.72754
524.72754
524.72754
0
0
532.45834
524.72754
524.72754
524.72754
524.72754
524.72754
524.72754
201.44667
524.72754
524.72754
524.72754
524.72754
524.72754
524.72754
524.72754
524.72754
524.72754
524.72754
524.72754
524.72754
524.72754
524.72754
524.72754
524.72754
524.72754
524.72754
524.72754
524.72754
524.72754
123.91205
98.257231
524.72754
524.72754
524.72754
524.72754
72.578733
128.11789
132.7325
102.43604
152.09751
145.96168
62.397415
80.044437
524.72754
524.72754
524.72754
524.72754
524.72754
524.72754
524.72754
524.72754
524.72754
524.72754
524.72754
524.72754
524.72754
524.72754
524.72754
524.72754
524.72754
175.88419
232.75538
192.23836
524.72754
524.72754
524.72754
524.72754
524.72754
524.72754
524.72754
524.72754
524.72754
524.72754
524.72754
524.72754
524.72754
524.72754
0
0
0
0
0
0
0
0
0
24.091959
0
0
0
0
0
0
0
0
0
0
0
0
0
0
0
0
0
0
0
0
0
0
0
0
0
0
0
0
0
0
0
0
0
0
0
154.55492
149.34419
89.436594
23.026614
25.340561
0
0
0
0
0
0
0
0
270.43637
414.96134
481.40392
349.00519
341.72685
488.41835
423.77131
239.76107
345.02171
0
0
0
0
0
0
0
0
0
0
48.382342
123.94204
199.23954
292.69463
0
0
0
0
0
0
0
0
0
0
0
0
0
0
0
90.727484
0
74.486624
85.922718
0
0
0
0
270.32373
0
76.109955
119.22304
128.9918
375.98413
239.07788
502.64624
299.6952
109.85995
314.14459
)

)


// ************************************************************************* //
