/*--------------------------------*- C++ -*----------------------------------*\
  =========                 |
  \\      /  F ield         | OpenFOAM: The Open Source CFD Toolbox
   \\    /   O peration     | Website:  https://openfoam.org
    \\  /    A nd           | Version:  8
     \\/     M anipulation  |
\*---------------------------------------------------------------------------*/
/*   Windows 32 and 64 bit porting by blueCAPE: http://www.bluecape.com.pt   *\
|  Based on Windows porting (2.0.x v4) by Symscape: http://www.symscape.com   |
\*---------------------------------------------------------------------------*/
FoamFile
{
    version     2.0;
    format      ascii;
    class       scalarListList;
    location    "constant/vegetation";
    object      F;
}
// * * * * * * * * * * * * * * * * * * * * * * * * * * * * * * * * * * * * * //


417
(

1743
(
0.00023891818
4.6014931e-05
0.00070820623
0.00022371516
0.010639989
0.0023262664
0.0033748735
0.0010315068
0.00033161067
0.0022311354
0.0004673455
9.039814e-05
0.00078864055
6.1203844e-05
0.00013791697
9.985974e-05
6.2778588e-05
4.3467585e-05
6.3289135e-05
0.00023151198
3.5371657e-05
0.00046287394
0.00053119212
6.6318083e-05
0.00049428114
0.00024292274
0.00015872745
0.00012895168
0.00016660614
0.00014097137
0.00015710502
0.00052041873
0.00026019483
8.2498569e-05
0.00012028865
4.9636493e-05
2.9469394e-05
3.3070023e-05
3.4160853e-05
2.4384642e-05
3.4886e-05
2.8266549e-05
2.5200376e-05
3.120409e-05
4.1726435e-05
5.5509547e-05
3.8538627e-05
9.4006911e-05
5.5343042e-05
6.196069e-05
5.3306291e-05
4.8519911e-05
5.6455073e-05
6.2510271e-05
6.0845793e-05
4.2007321e-05
4.4318874e-05
4.3298938e-05
4.0907677e-05
4.4193578e-05
5.9036242e-05
4.65636e-05
4.8305156e-05
5.1257826e-05
5.3761966e-05
5.872437e-05
6.1316357e-05
5.9158328e-05
5.8460428e-05
6.1241065e-05
4.5680041e-05
4.4647556e-05
4.5830313e-05
4.4769253e-05
6.4402034e-05
5.9884666e-05
6.2114296e-05
6.4605534e-05
5.5457036e-05
6.2211192e-05
4.5944838e-05
4.48975e-05
4.6718265e-05
0.00020092719
4.8067511e-05
4.6111162e-05
4.7706426e-05
4.5018408e-05
4.7620726e-05
6.5012865e-05
7.4082907e-05
6.5909533e-05
6.5212432e-05
5.8788754e-05
7.5720979e-05
6.6191917e-05
6.2907399e-05
6.1326298e-05
6.2269415e-05
6.3480398e-05
6.3191161e-05
6.4177135e-05
6.3810966e-05
0.00025077655
4.5707916e-05
4.5374925e-05
4.5414262e-05
4.4718803e-05
4.5029727e-05
4.507358e-05
4.6781346e-05
4.5513543e-05
4.6425211e-05
4.557309e-05
4.5160249e-05
4.600785e-05
6.3790826e-05
6.3710214e-05
6.3124209e-05
6.0812595e-05
6.0607583e-05
6.1569598e-05
4.5950238e-05
4.6199958e-05
4.6173123e-05
4.6448286e-05
4.6604778e-05
4.6371732e-05
4.7079112e-05
4.6425005e-05
4.7415772e-05
4.7182866e-05
5.4548265e-05
4.8447257e-05
6.4386847e-05
6.5595189e-05
6.4987505e-05
6.5408165e-05
7.462381e-05
6.6393777e-05
6.2918165e-05
5.0344284e-05
4.5114504e-05
4.3750417e-05
4.4570432e-05
4.4318327e-05
4.3555367e-05
4.3733391e-05
5.8322547e-05
6.0001493e-05
5.9135558e-05
6.1599559e-05
6.2942039e-05
6.2391172e-05
6.4084455e-05
6.3892011e-05
6.3358799e-05
4.8705945e-05
5.0563534e-05
5.0888276e-05
4.7258795e-05
6.6372363e-05
6.5186474e-05
6.5793367e-05
6.4762616e-05
6.5844836e-05
6.5444493e-05
6.3723087e-05
4.3781351e-05
4.3512179e-05
4.445879e-05
5.3574263e-05
3.6284118e-05
4.2585496e-05
5.6445218e-05
5.4466901e-05
5.2078426e-05
5.7838052e-05
5.769323e-05
4.7970203e-05
6.1040829e-05
6.0334624e-05
5.7375446e-05
5.7281296e-05
5.8209994e-05
4.2927067e-05
4.3183682e-05
4.3198353e-05
4.297471e-05
4.3904396e-05
4.383426e-05
4.2712414e-05
4.2591488e-05
3.9569123e-05
4.2513161e-05
4.2536608e-05
5.2758292e-05
5.9259234e-05
5.8337256e-05
5.8691063e-05
5.9519589e-05
5.9174893e-05
5.8761228e-05
6.0476103e-05
6.0837837e-05
5.796213e-05
5.9381179e-05
5.8908818e-05
4.4538267e-05
4.3980334e-05
4.4213767e-05
5.8883861e-05
6.2998992e-05
6.4122403e-05
4.4739545e-05
4.4583967e-05
4.4405775e-05
4.5101044e-05
4.4750409e-05
4.4863188e-05
5.8497943e-05
6.4723309e-05
6.4335116e-05
4.3039979e-05
5.1410345e-05
4.5239624e-05
5.795446e-05
6.0836832e-05
6.0411895e-05
5.9946842e-05
6.1754067e-05
6.3078659e-05
6.2591022e-05
6.0755389e-05
6.0328934e-05
5.9859569e-05
5.3428041e-05
6.7397319e-05
6.7493652e-05
6.6668254e-05
5.0959186e-05
0.00058586668
0.00042056239
0.00039058129
0.0010570853
0.00056002219
0.0016268111
0.0039958904
0.00036885043
8.2678871e-05
0.00032556707
0.0016840653
0.00028057465
0.00035902187
0.00023571933
0.0001635331
0.0002271717
3.1895736e-05
3.7036602e-05
2.7376485e-05
0.00022595087
5.406542e-05
4.4453211e-05
3.9244264e-05
1.7619032e-05
1.5101159e-05
2.039973e-05
1.1995314e-05
0.0015921231
0.0006569588
0.0010377083
0.0038107497
0.00067446328
5.2399145e-05
7.01109e-05
7.7739868e-05
7.8648137e-05
5.0214494e-05
7.2322542e-05
6.7368683e-05
5.6322662e-05
7.381132e-05
0.00010929218
7.3740577e-05
7.4129783e-05
1.2960878e-05
1.8271014e-05
1.0123393e-05
1.1146072e-05
1.1131148e-05
1.0960992e-05
1.1019071e-05
1.0725603e-05
1.0630428e-05
1.5384858e-05
1.4114792e-05
1.6784457e-05
2.4023399e-05
1.8300654e-05
2.2391831e-05
1.113336e-05
1.1137614e-05
1.2168866e-05
9.3206294e-06
1.1439943e-05
3.7326464e-06
1.4331956e-05
9.9073957e-05
5.756923e-05
0.00010402362
1.609661e-05
1.2970897e-05
9.4671313e-05
2.4658449e-05
2.8565594e-05
5.781605e-05
0.00010167694
0.00010375914
1.7539055e-05
1.2304066e-05
2.3471378e-05
2.530482e-05
1.0843627e-05
1.0504402e-05
1.0894865e-05
1.0868573e-05
1.426522e-05
1.5965288e-05
1.3155886e-05
1.3852132e-05
1.6503247e-05
1.0699534e-05
1.0758841e-05
1.0323383e-05
1.0558447e-05
2.8460987e-05
2.738269e-05
1.4966081e-05
1.6611657e-05
1.280185e-05
1.2638395e-05
2.4361531e-05
2.6843509e-05
1.4889686e-05
1.3782526e-05
2.8024218e-05
2.5567658e-05
2.6865563e-05
3.0942949e-05
2.9758699e-05
7.2873395e-05
1.2111915e-05
1.9008591e-05
0.00010193672
1.9061929e-05
1.1626156e-05
1.1184469e-05
1.2264316e-05
2.0761836e-05
2.6800472e-05
2.6438934e-05
1.1729911e-05
1.166928e-05
1.1438154e-05
1.1629048e-05
1.0122887e-05
1.1087825e-05
1.1353106e-05
1.1141977e-05
1.5829548e-05
2.0839874e-05
2.9351817e-05
2.3274719e-05
1.1759651e-05
1.1877188e-05
1.4697577e-05
1.2641395e-05
1.1719559e-05
1.2020062e-05
1.1934893e-05
1.4976394e-05
2.0888258e-05
1.2243422e-05
1.4149052e-05
1.3151739e-05
1.1692286e-05
1.1891654e-05
1.1602401e-05
1.1994442e-05
2.0420847e-05
2.9856123e-05
2.418097e-05
1.1920987e-05
1.8680183e-05
1.0979006e-05
1.1149352e-05
1.1714894e-05
1.1697894e-05
1.1104482e-05
1.0892725e-05
1.1512859e-05
1.1066901e-05
1.1576694e-05
1.0814022e-05
1.1267032e-05
1.1195279e-05
1.0538013e-05
1.4156128e-05
1.7201593e-05
1.5410896e-05
1.8845318e-05
1.8399981e-05
2.9005353e-05
2.7407651e-05
1.6878159e-05
2.5933064e-05
2.0300112e-05
1.114285e-05
1.1808669e-05
1.1856999e-05
1.1196952e-05
1.3081628e-05
1.3812245e-05
8.3813609e-06
1.3175481e-05
1.089345e-05
1.9236935e-05
2.7431483e-05
2.1743605e-05
6.6519327e-06
1.1327098e-05
1.0633649e-05
1.9817432e-05
2.9679086e-05
1.9837319e-05
2.9513496e-05
1.9353718e-05
1.9738547e-05
1.4866263e-05
1.6118299e-05
1.3823576e-05
1.2800999e-05
2.3555367e-05
2.6519344e-05
2.5251713e-05
2.7050974e-05
2.6737699e-05
2.6807615e-05
2.8488134e-05
3.0100211e-05
2.8294318e-05
2.8316596e-05
2.9273729e-05
2.7229814e-05
2.7567491e-05
1.7480335e-05
1.9248846e-05
1.1957557e-05
1.1695511e-05
2.2637261e-05
2.1287507e-05
2.6487024e-05
2.5717927e-05
1.2291337e-05
1.0771856e-05
1.0996375e-05
1.0473373e-05
1.1985529e-05
1.0777566e-05
1.1967327e-05
1.0853645e-05
1.6273307e-05
1.3118422e-05
1.8144088e-05
2.084423e-05
1.2743394e-05
1.1121341e-05
1.3836811e-05
1.2555228e-05
1.3157431e-05
1.3674933e-05
1.1769326e-05
1.0608941e-05
1.1836417e-05
1.0812648e-05
1.1529087e-05
1.0537144e-05
1.2367731e-05
1.1634253e-05
3.0753588e-05
2.8373211e-05
2.715325e-05
2.9048151e-05
2.8635842e-05
2.6126171e-05
2.6324269e-05
2.9792547e-05
2.7981233e-05
2.8115229e-05
2.9297806e-05
2.7832392e-05
2.7667562e-05
1.3819629e-05
1.3129192e-05
1.464684e-05
1.9013968e-05
1.3084043e-05
1.2867536e-05
1.5374884e-05
1.213598e-05
2.1855357e-05
2.4732638e-05
2.5895486e-05
2.3681844e-05
2.4243797e-05
1.878572e-05
2.4005426e-05
2.4401477e-05
1.9018787e-05
2.3925623e-05
2.5268159e-05
1.9981899e-05
2.5082401e-05
1.9896524e-05
2.4846543e-05
2.4965084e-05
2.4319182e-05
1.9505553e-05
2.443917e-05
2.4717996e-05
1.9621027e-05
2.4576842e-05
0.004717877
0.0032797715
0.0023290006
0.0060035088
5.7544801e-05
0.00019393587
0.00022775688
5.0893338e-05
0.00023605425
0.00018078458
4.5152411e-05
0.00017893993
4.5137202e-05
6.3210685e-05
0.00026252469
5.153925e-05
5.2077708e-05
5.9151552e-05
5.5042766e-05
4.9083629e-05
5.3576159e-05
6.0363489e-05
6.2897447e-05
5.6235351e-05
6.3171466e-05
4.6386598e-05
4.3880377e-05
4.7611874e-05
4.4086124e-05
0.00020301224
0.00022479659
4.7575591e-05
4.6539539e-05
0.00020684444
5.2672758e-05
5.7507974e-05
6.3521932e-05
0.00021726497
5.9088554e-05
3.9541204e-05
4.0747083e-05
4.8537089e-05
4.9403382e-05
7.4469202e-05
5.907954e-05
6.6575397e-05
6.4808979e-05
0.00023534509
6.6247606e-05
4.3368086e-05
4.993519e-05
1.4632173e-05
2.4001985e-05
0.00016960958
5.1076e-05
4.6549643e-05
4.5533593e-05
5.183683e-05
4.6425994e-05
3.83365e-05
3.71394e-05
0.00017991635
5.2167658e-05
0.00022570568
0.00024203326
5.2433734e-05
5.7846437e-05
5.1281453e-05
4.4307985e-05
4.5446481e-05
5.6471067e-05
4.8806325e-05
5.0067578e-05
4.3139695e-05
4.1948865e-05
4.3542257e-05
5.0582582e-05
4.4868165e-05
4.7512038e-05
5.2084609e-05
4.6194716e-05
5.3503841e-05
6.1423533e-05
5.4469959e-05
5.0744867e-05
5.0151508e-05
6.227371e-05
5.588841e-05
5.5289102e-05
5.1122817e-05
5.1138155e-05
4.9791322e-05
6.1592609e-05
5.4434224e-05
5.613453e-05
6.2922474e-05
5.5842299e-05
6.3458522e-05
4.3894096e-05
4.1270445e-05
3.3290444e-05
3.0763247e-05
4.424773e-05
3.8331711e-05
3.8591831e-05
3.4723064e-05
3.5946839e-05
4.2233788e-05
4.6196474e-05
4.0971263e-05
3.8865754e-05
4.4943581e-05
3.981383e-05
0.00022728888
5.7167617e-05
0.00021635032
5.4284238e-05
5.9066229e-05
6.1008849e-05
5.5901967e-05
6.4652302e-05
6.2778316e-05
6.2113641e-05
7.1345837e-05
6.9737762e-05
6.0629877e-05
6.6353398e-05
6.8123945e-05
6.5932792e-05
7.5587382e-05
6.7440864e-05
6.5847267e-05
7.2741567e-05
7.3441687e-05
6.6030199e-05
6.6494987e-05
7.3204724e-05
4.9498599e-05
5.7321229e-05
5.514188e-05
4.7677515e-05
4.6891107e-05
5.2944364e-05
4.6391481e-05
5.2550633e-05
4.7260173e-05
4.7546828e-05
5.342864e-05
5.3191625e-05
4.7618198e-05
7.3248986e-05
6.5880097e-05
7.253765e-05
9.9195702e-05
4.982329e-05
2.5926434e-05
4.6514968e-05
5.0740801e-05
6.4133178e-05
6.385126e-05
4.5154759e-05
4.4971495e-05
4.490964e-05
5.9108364e-05
7.5391569e-05
6.7237641e-05
6.2552944e-05
6.4153659e-05
6.4659894e-05
4.5202932e-05
4.4543295e-05
4.4740637e-05
4.5139079e-05
4.4933231e-05
4.4918757e-05
6.0502138e-05
6.5632008e-05
6.6087249e-05
5.94563e-05
6.508662e-05
6.5473781e-05
5.2841765e-05
6.8666017e-05
6.7414896e-05
6.7963985e-05
4.7817033e-05
4.6587888e-05
4.7468876e-05
4.7839e-05
4.7250282e-05
4.7593446e-05
6.9539106e-05
7.5667832e-05
6.9516132e-05
6.7802167e-05
7.4811967e-05
6.8551266e-05
5.1803262e-05
0.00093160257
0.00038071039
0.047927614
0.067731029
0.004510592
0.0072900719
0.0071560213
0.00092570361
0.0044210891
0.0087225218
0.00050004486
0.019585813
0.00065188967
0.00047324687
0.00062370369
0.00080429395
0.00049636049
0.00066749178
0.00048383567
0.00029140237
0.00030175893
0.00026968902
0.097480245
0.07974586
0.018612781
0.016109124
0.00428559
0.0025851194
0.0023256602
0.0025392848
0.0023443306
0.00032511621
0.0026158021
0.00034532113
0.00034726025
0.00040379602
0.00030628466
0.00040315277
0.00042530458
0.00035201402
0.00042712583
0.00041638636
0.00035081904
0.00042043358
0.0028053179
0.0024883037
0.00035539869
0.0014716192
0.0015574707
0.0024711974
0.001677094
0.0024422713
0.0016981129
0.0017377217
0.00035276631
0.0003761701
0.00052143952
0.0005175454
0.0004964716
0.00049376358
0.00046797746
0.00047662454
0.00043430458
0.00042158932
0.00049955751
0.00050099921
0.00049824772
0.00040002847
0.00040206924
0.00052011079
0.00046065201
0.00043410395
0.00040335198
0.00048834908
0.00038026582
0.00047447417
0.00045816245
0.00044213079
0.00039762741
0.00033052209
0.00047783628
0.00035552186
0.00046475404
0.00046614569
0.00049587142
0.0003946923
0.00036660841
0.00033724208
0.0021148965
0.00035808143
0.0023844912
0.00029618135
0.0003033664
0.00040658014
0.00045546319
0.00044782452
0.00034286642
0.00038074214
0.00036039792
0.000365351
0.00045401334
0.00045876449
0.00045537795
0.00045248789
0.00041929349
0.00044259853
0.00040910251
0.00037280766
0.00030489085
0.00047084574
0.0003723747
0.0003768499
0.00044777806
0.00045198122
0.00045380428
0.00046885167
0.00045610389
0.00046999296
0.00048845684
0.00046899658
0.00048180336
0.00022526807
0.00048730676
0.00050810082
0.00047365604
0.00039277782
0.00046576262
0.00038822466
0.00043587167
0.00046032206
0.00042515992
0.00039080797
0.00038676594
0.00047360398
0.00048974731
0.00046654876
0.00033475082
0.00047283688
0.00048465147
0.00031100862
0.00034188457
0.00045427183
0.00045172644
0.0015014545
0.002329772
0.00045425682
0.00045275818
0.0004283021
0.0004360825
0.00039781005
0.00038558212
0.00040685306
0.00047147907
0.0002527518
0.00047326874
0.00040980488
0.00040995643
0.00049590568
0.00035296151
0.00049498141
0.00042552042
0.00041155233
0.00047139434
0.0003526202
0.00047582007
0.00042341067
0.00038238035
0.0003537417
0.00032610004
0.00028664751
0.0022058011
0.00037576712
0.00035305512
0.0019653731
0.00031543717
0.00034962137
0.00035053366
0.00044353657
0.00014454279
0.00056584934
0.0017050734
0.0025338245
0.00035450215
0.00035069982
0.0003728164
0.00042961818
0.00034486692
0.00046210595
0.00046520225
0.00033159067
0.00035630817
0.00036379369
0.00039236575
0.00035823612
0.00035804563
0.00034765455
0.00036035004
0.0003977609
0.00035391094
0.00045918039
0.00046226205
0.00032441136
0.00033732361
0.00035682733
0.00039388182
0.00045293037
0.0005112152
0.00049313817
0.00051741893
0.00051956471
0.00059599767
0.00047241449
0.00049804623
0.00046979567
0.00048954083
0.00044533875
0.00045794972
0.00045350089
0.00048382997
0.00041330247
0.0004466
0.00040044344
0.00040844007
0.00047239428
0.00049908288
0.00049632814
0.00059306417
0.00047011066
0.0004928327
0.00045749713
0.00047418435
0.00046146064
0.00048069268
0.00035369389
0.00036828225
0.00037203603
0.00035109967
0.0003653748
0.00036283488
0.00045542982
0.000499935
0.00042350479
0.00049871142
0.00061107262
0.00046276424
0.00039828784
0.00037548512
0.00042481616
0.00041422727
0.00034375657
0.00047095902
0.00047650653
0.00037641546
0.0003963672
0.00043703106
0.00042870933
0.00039581953
0.00045415995
0.0003821689
0.00044883682
0.00039915911
0.00034361862
0.00037496665
0.0004769071
0.00039347248
0.00038718614
0.00035966759
0.00037870919
0.00036391463
0.00031946969
0.00035141565
0.00031286657
0.00035034308
0.00034766193
0.00044208471
0.00038802787
0.00040684253
0.00034000001
0.00035211919
0.00018864609
0.00037722986
0.00034160606
0.00020527273
0.0046453005
0.0012029242
0.00054722274
0.0017131939
0.011143191
0.003576854
0.0012685321
0.0056582019
0.00063765319
0.0014452678
0.00061879388
0.00050400112
0.00042805544
0.00072645245
0.00030905216
0.00040850568
0.00032168225
0.021700111
0.013058111
0.0023570947
0.0013443425
0.0026660475
0.0019390598
0.0011405936
0.00097558789
0.0008143295
0.0066954338
0.010519862
0.00052083182
0.00029942352
0.00080625932
0.00032247863
0.00089590205
0.00077149685
0.00028619405
0.00075908782
0.00056218149
0.00037582265
0.00052896523
0.0012895048
0.00031749116
6.3643194e-05
6.075314e-05
4.5339614e-05
0.0002726449
4.6541452e-05
0.00025670358
4.6783003e-05
0.00044252395
0.00016720324
4.9628056e-05
3.475948e-05
3.2743763e-05
1.8362103e-05
1.6954784e-05
0.00066774155
3.8224195e-05
3.6468788e-05
3.9053164e-05
3.8394573e-05
3.9036595e-05
3.5260729e-05
3.7731189e-05
3.4687936e-05
4.015796e-05
3.7706684e-05
1.2637555e-05
2.0531225e-05
3.9408939e-05
3.8849227e-05
3.8940975e-05
2.7904922e-05
2.6057389e-05
5.4969034e-05
3.7586461e-05
3.5339866e-05
3.212101e-05
3.7478848e-05
3.269295e-05
3.928191e-05
4.0004794e-05
3.8031905e-05
3.7738803e-05
3.752339e-05
4.6814469e-05
3.1373709e-05
3.6827799e-05
3.9061069e-05
3.8498891e-05
3.8431578e-05
3.7832302e-05
3.7041795e-05
3.7241257e-05
3.5884851e-05
3.6096368e-05
3.8246577e-05
3.6903161e-05
3.6827977e-05
3.3888249e-05
3.6070559e-05
3.6444757e-05
3.91115e-05
3.8134454e-05
3.8294238e-05
3.8578705e-05
3.7878638e-05
3.8052019e-05
3.9037308e-05
3.8503739e-05
3.8515188e-05
3.8730371e-05
3.8310023e-05
3.8193552e-05
3.9005619e-05
3.8403089e-05
3.8472589e-05
3.8690275e-05
3.9177232e-05
3.8486499e-05
3.7525241e-05
3.7837992e-05
0.00086052127
0.00032378336
3.8625622e-05
0.0021559872
2.3540571e-05
2.9531424e-05
0.00022023517
5.3621734e-05
0.00027549546
0.00016364236
5.1006068e-05
0.00029349943
0.00015638833
5.3536638e-05
0.00062705995
0.00026260903
9.8109644e-05
0.00059786201
0.00038507271
0.00044868773
0.00058847951
4.8474711e-05
3.7792106e-05
3.9943124e-05
6.0072322e-05
2.0091875e-05
2.0762611e-05
2.2031335e-05
1.977712e-05
4.0826883e-05
2.494338e-05
5.9297039e-05
3.5776455e-05
3.4744589e-05
0.00016957213
3.491374e-05
3.0981898e-05
4.0948955e-05
6.1722991e-05
3.2107576e-05
0.00016581052
0.00017424984
3.9835861e-05
3.8712689e-05
0.00017548139
4.8559464e-05
3.992926e-05
2.9736429e-05
3.0720429e-05
3.2104662e-05
3.1972546e-05
3.4773512e-05
4.0193306e-05
4.7231175e-05
4.8704049e-05
4.0609564e-05
4.2287987e-05
3.2447492e-05
4.2471743e-05
4.2687054e-05
4.2412368e-05
3.5564919e-05
4.1908909e-05
0.00016002038
0.00015799806
0.00015316093
3.4233766e-05
3.3987822e-05
4.5569684e-05
3.4401553e-05
3.4477887e-05
4.9939646e-05
3.7314383e-05
4.4123875e-05
4.5787856e-05
0.00016116507
4.4629342e-05
2.7486109e-05
3.2143967e-05
0.00016405902
0.00017638534
0.00016603598
3.7329944e-05
5.0847366e-05
5.1064778e-05
5.0010172e-05
3.7178755e-05
5.0877165e-05
0.00016586636
0.00017731384
0.00016705781
3.7683129e-05
3.7406622e-05
3.7874457e-05
4.2765341e-05
3.7964394e-05
3.4305865e-05
3.4452584e-05
4.2675156e-05
3.7731152e-05
3.7931018e-05
3.4004296e-05
3.346129e-05
3.1528707e-05
3.9551187e-05
3.4998771e-05
3.728626e-05
4.1065547e-05
3.6490927e-05
3.5580401e-05
5.1175888e-05
4.2983201e-05
5.0124285e-05
4.3928819e-05
4.5800741e-05
5.1399344e-05
5.1065416e-05
4.5206214e-05
4.4827527e-05
5.0144225e-05
3.1086362e-05
1.6223545e-05
4.9634916e-05
3.5727227e-05
4.223585e-05
2.9062917e-05
4.1514121e-05
4.0609899e-05
4.1281909e-05
3.3968957e-05
3.8425271e-05
3.8183594e-05
3.0718226e-05
3.9728103e-05
3.9360353e-05
4.1648358e-05
4.0963038e-05
4.1649817e-05
3.2023277e-05
4.105863e-05
4.0891701e-05
4.0308384e-05
4.0964011e-05
3.4266174e-05
3.8967451e-05
3.8489232e-05
3.9576866e-05
4.0652945e-05
3.9791978e-05
3.7712635e-05
3.9631146e-05
3.9763468e-05
4.0856689e-05
4.1181128e-05
4.1492662e-05
3.9465457e-05
4.1146127e-05
4.1432825e-05
3.8142693e-05
4.2013969e-05
4.2339965e-05
3.737439e-05
4.0893007e-05
4.1507249e-05
3.7510746e-05
4.1847957e-05
4.202344e-05
3.7056268e-05
4.1681457e-05
4.1524084e-05
2.7732434e-05
3.2860677e-05
3.2189926e-05
2.9017725e-05
4.3521341e-05
4.8285196e-05
4.3267066e-05
4.1328198e-05
4.1813125e-05
4.0617185e-05
4.3898371e-05
4.8762022e-05
4.3428962e-05
4.1784897e-05
4.7477494e-05
4.2518037e-05
4.3658668e-05
4.8313532e-05
4.359921e-05
4.7369836e-05
4.2359537e-05
4.2967871e-05
4.4758255e-05
4.4709238e-05
4.4265886e-05
3.3842914e-05
4.536611e-05
5.1255124e-05
4.5437637e-05
4.5184767e-05
5.1185925e-05
4.5336852e-05
4.4271656e-05
5.0366819e-05
4.4579633e-05
5.0632366e-05
4.5008612e-05
4.4810057e-05
3.2236559e-05
3.1840987e-05
0.0001225106
0.00020567565
0.00015118824
0.00093016343
0.00032995869
0.00063074135
0.0010388664
0.00024883845
0.00076650414
0.0014508458
0.001351429
0.00011723517
5.2260417e-05
1.2402638e-05
0.0011180094
0.0020586423
0.0019346957
0.0019798379
4.6502254e-05
0.0010059632
0.00023014261
9.6123139e-05
0.00019382806
0.00032661715
0.00060417042
9.7877666e-05
0.00013367243
6.0791406e-05
0.00010085092
2.0853784e-05
2.5628445e-05
2.3851433e-05
1.460672e-05
2.3497481e-05
1.8826007e-05
2.2130544e-05
9.2284372e-06
6.9327927e-06
1.1256638e-05
0.00027556012
0.0017453122
0.00033854963
0.00083687724
0.00097434089
3.7872232e-05
2.7688497e-05
4.2437701e-05
4.1080311e-05
3.9296363e-05
3.6746892e-05
2.6816295e-05
2.9955244e-05
3.9907028e-05
5.6507582e-05
3.9947309e-05
4.0595324e-05
5.5167806e-06
6.84882e-06
9.1346855e-06
6.3012405e-06
6.2952658e-06
6.2213711e-06
6.2468043e-06
6.1170643e-06
6.0748358e-06
6.2944413e-06
6.2995395e-06
6.6247441e-06
5.1296128e-06
6.2909037e-06
8.1190312e-06
7.3791558e-06
8.7626343e-06
1.1981945e-05
9.2522675e-06
1.1298703e-05
2.1118029e-06
8.1304277e-06
7.2149183e-06
3.0452163e-05
8.7075901e-06
3.9148864e-05
4.9468563e-05
1.2687395e-05
1.4165952e-05
6.9065945e-06
3.0649401e-05
9.3968947e-06
6.2558829e-06
6.0449484e-06
1.2201413e-05
1.2954971e-05
5.9855568e-06
5.9737488e-06
7.2167819e-06
7.5180448e-06
9.0469956e-06
7.5042689e-06
8.3121588e-06
5.9052002e-06
5.9300022e-06
5.7287814e-06
5.8703971e-06
1.4127599e-05
1.375616e-05
7.0984251e-06
7.0729624e-06
8.067037e-06
8.866319e-06
1.2604617e-05
1.3471025e-05
7.6239229e-06
8.1619954e-06
1.4356736e-05
1.2699328e-05
1.316802e-05
6.3658259e-06
6.3525053e-06
6.9100214e-06
1.5164586e-05
1.4736609e-05
6.5725317e-06
1.0129895e-05
5.3648586e-05
1.0036676e-05
6.5646403e-06
6.5387274e-06
6.4391172e-06
6.5216613e-06
5.7982274e-06
6.306509e-06
6.4019364e-06
6.3220452e-06
1.0956816e-05
1.3517038e-05
1.3773994e-05
6.5813827e-06
6.6553721e-06
7.9110561e-06
7.0172446e-06
6.5714168e-06
8.4320075e-06
1.0744545e-05
1.4444859e-05
1.186277e-05
6.6618337e-06
6.6232335e-06
6.78511e-06
7.6082892e-06
7.2947395e-06
7.9692042e-06
1.0756109e-05
6.5201218e-06
6.6050486e-06
6.4814639e-06
6.7421594e-06
5.9231285e-06
1.0350413e-05
1.4668934e-05
1.230849e-05
6.3656758e-06
9.2342501e-06
6.3019299e-06
6.5575701e-06
6.5507296e-06
6.2839334e-06
6.1913112e-06
6.4716188e-06
6.2676854e-06
6.4992725e-06
6.1564276e-06
6.3653842e-06
6.3380536e-06
6.0351627e-06
6.2983885e-06
6.6103155e-06
6.6401118e-06
6.3370252e-06
7.0493269e-06
7.5114685e-06
4.6575698e-06
7.238833e-06
6.0511392e-06
7.5498303e-06
9.0660794e-06
7.9691122e-06
9.8251007e-06
9.500519e-06
1.4301299e-05
1.3643391e-05
8.6308207e-06
1.3062593e-05
1.0363201e-05
9.8606452e-06
1.3774038e-05
1.1272781e-05
3.729401e-06
6.4159348e-06
5.9642335e-06
5.1162408e-05
1.004189e-05
1.4579347e-05
5.3785593e-05
1.0071392e-05
1.4519306e-05
5.2888405e-05
9.8959656e-06
5.3778524e-05
1.0033684e-05
7.6190491e-06
7.1445706e-06
8.1181603e-06
8.7543034e-06
1.2188567e-05
1.3507981e-05
1.2581409e-05
1.3579773e-05
1.3464611e-05
1.3144563e-05
1.4121547e-05
6.7328394e-06
6.6251721e-06
1.4758399e-05
1.4027172e-05
1.4044078e-05
1.4459364e-05
1.3633295e-05
1.3769221e-05
9.4050929e-06
1.0212347e-05
7.1071608e-06
6.1573371e-06
6.270254e-06
6.0121913e-06
1.1828595e-05
1.1180773e-05
1.3422431e-05
1.3106182e-05
6.6440591e-06
5.9195753e-06
6.6368159e-06
5.9697632e-06
7.0621754e-06
6.1069398e-06
7.5176951e-06
6.742685e-06
7.2934466e-06
7.5065465e-06
8.5677268e-06
6.9756105e-06
9.4487201e-06
1.072694e-05
6.5528746e-06
5.864872e-06
6.5814987e-06
5.9525001e-06
6.4531549e-06
5.8354565e-06
6.8857626e-06
6.5255813e-06
1.5089637e-05
1.4101422e-05
1.3657108e-05
1.4779583e-05
1.431785e-05
1.3257439e-05
1.3305249e-05
1.4618897e-05
1.390312e-05
1.3954724e-05
1.443961e-05
1.3848523e-05
1.379055e-05
7.1878919e-06
7.1116195e-06
8.573614e-06
6.8558183e-06
7.5208279e-06
7.0551158e-06
7.7964838e-06
1.0046496e-05
1.1428679e-05
1.2740467e-05
1.2986642e-05
1.2025363e-05
1.2304485e-05
9.6584627e-06
1.2220723e-05
1.2516564e-05
9.8110928e-06
1.2223377e-05
1.2671225e-05
1.0128384e-05
1.2582594e-05
1.0091286e-05
1.2485639e-05
1.253238e-05
1.2310313e-05
9.9505141e-06
1.2342731e-05
1.2438093e-05
9.9906337e-06
1.2387818e-05
0.00057821122
0.00066508253
0.00074184715
0.00044026276
0.00012373059
0.00044913116
0.00046523705
0.0025685719
0.0040104581
0.0043723021
0.0026270495
0.0036705965
0.0016138767
0.0033317456
0.00014470635
0.0005200443
0.00058048328
0.00034650574
0.000933196
0.00082527815
0.00020722872
0.00052425354
0.0005999249
0.00016951813
0.0008805422
0.0013397617
0.00088821084
0.00071894734
0.0011719063
0.00073080019
0.00081709346
0.00058856857
0.00020795081
0.00053318967
0.00074177002
0.0009952005
0.0016301101
0.00053186129
0.00085228633
0.0015775678
0.00075705223
0.0052140225
0.0014358422
0.0026597676
0.011746477
0.0017130351
0.00051142928
0.0038223272
0.0003725645
0.0013181917
0.00047007301
0.0010877726
0.0015199761
0.0018262407
0.00029593264
0.0015240845
0.0019405798
0.00043462396
0.00089827414
0.00055351176
0.0015122245
0.00045087202
0.00063145682
0.0015751778
0.0029982716
0.0022229829
0.0025109877
0.0008022018
6.4872981e-30
0.0011867156
0.015443003
0.0038132527
0.00236329
0.0012197606
0.00072055763
0.0011904788
0.00091631898
0.00071336844
0.0092895588
0.02901934
0.012545421
0.0015182071
0.00085093713
0.0013758676
0.00034471802
0.00038920137
0.0012600231
0.0011198248
0.0021232995
0.0007058119
0.00075046419
0.0021598394
0.0019430395
0.0011615559
0.00050277019
0.0016058336
)


1496
(
0.0030015473
6.3615639e-07
1.0741131e-05
6.703258e-07
9.4891177e-07
9.1398786e-07
2.6304419e-05
1.808684e-05
1.1818693e-06
1.3893121e-05
9.9325905e-07
1.2039314e-05
1.9332769e-05
5.1331621e-06
5.4442391e-07
3.870064e-06
5.1769239e-07
3.7714268e-06
4.7515104e-06
7.817825e-07
6.72787e-06
8.2175531e-07
7.0435045e-06
9.215224e-06
2.1411635e-05
7.864159e-06
1.1720743e-06
8.082902e-06
6.9144267e-06
1.1284717e-06
7.8180387e-06
4.8402905e-06
5.7613905e-06
4.963716e-06
2.4227857e-05
1.6300791e-05
8.8394506e-06
1.0000631e-05
1.6852808e-05
1.022949e-05
1.0337724e-05
6.0811886e-05
1.5937186e-05
1.8287772e-05
2.3699923e-05
1.8896292e-05
2.3819316e-05
2.8024235e-05
1.5052384e-05
1.3155423e-05
1.6896888e-05
1.8741384e-05
8.4937259e-06
7.4037737e-06
5.167136e-06
6.0422381e-06
6.2918224e-06
1.5688825e-05
1.4251547e-05
1.371395e-05
9.2291022e-06
1.0738643e-05
1.1212101e-05
9.5578556e-06
1.7607104e-05
2.0223294e-05
1.9487355e-05
2.5563924e-05
2.1056572e-05
9.2127373e-06
9.2389244e-06
8.0195015e-06
1.0369462e-05
1.3445328e-05
1.1505907e-05
4.0306303e-06
2.7626356e-06
2.8808368e-06
3.6937693e-06
2.6858053e-06
2.6304098e-06
4.9556964e-06
7.2130219e-06
5.1705467e-06
5.5118153e-06
7.7818579e-06
6.7469182e-06
9.6228425e-06
1.2148032e-05
1.1689373e-05
1.7254312e-05
1.4736806e-05
1.5091301e-05
1.4698839e-05
1.3655922e-05
1.2684946e-05
2.2187944e-05
2.2853397e-05
2.1406924e-05
1.9359929e-05
2.0901796e-05
2.1422208e-05
1.91162e-06
6.0363932e-07
1.8140525e-06
2.0146027e-06
7.0602518e-07
2.123795e-06
2.8471797e-06
9.054338e-07
2.7189988e-06
3.4107523e-06
1.2396681e-06
3.6406788e-06
1.2234544e-05
1.6977683e-05
1.4861485e-05
2.976464e-06
1.0382465e-06
3.1091962e-06
5.7297914e-07
1.6482879e-06
1.7243094e-06
4.869895e-07
1.5907363e-06
1.5474955e-06
7.4319003e-07
2.3546706e-06
2.2385714e-06
8.6300577e-07
2.4715213e-06
2.5928288e-06
5.6309719e-06
8.3673984e-06
6.0068875e-06
1.2129781e-06
3.496774e-06
3.5996287e-06
1.304509e-05
1.0759778e-05
1.2957878e-05
1.0835138e-06
3.3749446e-06
3.2436733e-06
2.0547195e-05
1.9446695e-05
2.1670819e-05
2.2101632e-05
2.5405257e-05
2.3539901e-05
2.9237372e-06
1.850046e-05
4.9963176e-06
3.2483248e-06
4.3073154e-06
3.0618604e-06
3.420628e-06
5.5750413e-06
3.6305752e-06
3.8702401e-06
4.7969957e-06
8.2938511e-06
5.8009986e-06
5.9563018e-06
1.0607612e-05
1.2559104e-05
1.2875682e-05
7.521677e-06
5.6072151e-06
5.3927653e-06
1.2311959e-05
2.31877e-05
2.5684037e-05
2.3636648e-05
1.9855935e-05
8.9580389e-05
8.8422952e-05
6.395119e-05
0.00021995855
0.0028749414
0.0031781153
0.0022675227
0.00038300381
0.0072290639
0.0019074608
0.0016118623
0.006534267
0.001164219
1.6913796e-05
2.3108062e-05
2.7838293e-05
2.8592799e-05
8.8077268e-06
1.5720256e-05
1.1852888e-05
1.2111405e-05
2.1785225e-05
3.8151172e-05
1.898596e-05
9.5778552e-06
5.5669151e-06
7.3163624e-06
4.5143271e-06
3.7262218e-06
3.5078255e-06
2.5581222e-06
2.8057614e-06
1.7817474e-06
1.5143151e-06
6.4421044e-06
5.9824912e-06
6.9380181e-06
9.394334e-06
7.4335927e-06
8.8798581e-06
4.3329223e-06
4.5295615e-06
5.2858821e-06
4.2060153e-06
5.0287006e-06
1.7586682e-06
6.5869899e-06
3.1441285e-05
1.6714834e-05
2.9710502e-05
6.533003e-07
5.2851908e-07
1.6373259e-05
1.0077408e-06
9.7761677e-06
1.4683651e-05
2.1612646e-05
2.5987041e-05
7.1193622e-07
5.0281373e-07
9.5773224e-07
1.6836822e-06
4.4356384e-07
7.0769579e-07
3.5542001e-06
3.3539199e-06
5.4307925e-06
6.0068567e-06
4.9678772e-06
5.4149179e-06
6.4883344e-06
2.4609178e-06
2.6881116e-06
1.6955255e-06
1.5018821e-06
1.0111417e-05
9.8541527e-06
9.7465825e-07
1.0850106e-06
8.4829377e-07
8.4622753e-07
1.6217912e-06
9.2987035e-06
2.0622695e-07
1.9093499e-07
3.8436428e-07
4.5561655e-06
8.7518593e-06
9.6647787e-06
5.8760855e-06
9.1771335e-06
1.0505651e-06
2.6353697e-07
1.3026331e-05
1.7166839e-06
1.0171587e-06
1.5672589e-07
1.1370149e-06
2.8855968e-07
2.4432188e-06
2.4502393e-06
4.105713e-06
3.4236241e-06
2.4075904e-06
3.1805807e-06
1.4372541e-07
1.0298285e-06
2.1376574e-06
1.3120249e-06
6.5077921e-06
8.2519553e-06
1.1004021e-05
9.0930112e-06
4.3273502e-06
4.9817885e-06
6.1139703e-06
5.4443773e-06
5.1052845e-06
4.171769e-06
3.4771704e-06
5.9553432e-06
8.002682e-06
4.4650453e-06
5.6884434e-06
5.4562009e-06
2.4488677e-06
3.2314102e-06
2.1750166e-06
1.4079583e-06
6.8417706e-06
1.083977e-05
9.139041e-06
5.186621e-06
7.3801565e-06
4.8368052e-06
3.9359687e-06
3.8848948e-06
3.6585476e-06
3.281162e-06
2.3045295e-06
2.6718552e-06
3.0469313e-06
2.9297452e-06
2.0454961e-06
1.8641246e-06
1.5890999e-06
1.2447344e-06
6.0023058e-06
6.986838e-06
6.442727e-06
7.5594492e-06
7.5049543e-06
1.1197987e-05
1.0414733e-05
6.9565826e-06
9.991887e-06
8.1661116e-06
4.1373898e-06
4.5525881e-06
4.7744649e-06
4.7460561e-06
5.6147843e-06
5.812412e-06
3.8273438e-06
5.6085849e-06
4.8463284e-06
3.4844632e-06
3.1498831e-06
2.5162948e-06
3.0764654e-06
4.9917853e-06
4.7828797e-06
6.3614677e-06
7.9394198e-06
5.4210143e-06
7.4191815e-06
3.880949e-06
5.0680691e-06
6.0369549e-07
2.2324419e-07
5.6203681e-07
1.7753879e-07
3.31731e-07
1.082127e-06
4.0163423e-06
4.8509195e-06
4.2488921e-06
9.0615633e-06