/*--------------------------------*- C++ -*----------------------------------*\
  =========                 |
  \\      /  F ield         | OpenFOAM: The Open Source CFD Toolbox
   \\    /   O peration     | Website:  https://openfoam.org
    \\  /    A nd           | Version:  8
     \\/     M anipulation  |
\*---------------------------------------------------------------------------*/
/*   Windows 32 and 64 bit porting by blueCAPE: http://www.bluecape.com.pt   *\
|  Based on Windows porting (2.0.x v4) by Symscape: http://www.symscape.com   |
\*---------------------------------------------------------------------------*/
FoamFile
{
    version     2.0;
    format      ascii;
    class       scalarListList;
    location    "constant/vegetation";
    object      skyViewCoeff;
}
// * * * * * * * * * * * * * * * * * * * * * * * * * * * * * * * * * * * * * //


5
(

417
(
0
188
188
188
188
188
188
188
188
188
188
188
188
188
188
188
188
188
188
188
188
0
0
0
0
0
188
188
188
188
188
94
188
188
188
188
188
94
94
94
188
188
188
188
188
188
188
188
187.94752
187.99774
188
188
187.95645
187.99979
188
188
188
94.001081
187.99999
94
94
188
94
188
188
188
188
188
187.99798
187.99992
188
188
188
188
188
188
188
188
188
188
94.00004
94.011926
187.99983
94.00602
94
94
188
94
94
94
188
94
188
188
188
187.99152
187.99537
187.99851
187.9992
188
188
188
188
188
188
94
94
94
188
188
188
187.99999
188
94
94
94
94
94
94
94
188
188
188
188
188
94
94
188
188
94
94
94
94
94
94
94
94
94
94
94
94
94
188
188
188
188
187.99983
187.99919
187.99976
187.99999
188
188
188
188
188
188
188
188
188
188
94
94
94
94
94
188
188
188
188
94
94
94
94
94
188
188
188
188
188
188
188
188
188
188
188
188
94
94
94
94
94
94
94
94
94
94
94
94
94
94
94
94
94
94
94
94
94
94
94
94
94.001565
94
94
94
94
94
94
94
94
94
94
94.01011
94
94.013043
94
94
94
94
94
94
94
94
94
94
94
94
94
94
94
94
94
94
94.002392
94
94
94
94
94
94
94
94
94
94
94.00079
188
94
94
94
94
94
94.000828
94.111955
94.00331
94.073628
94
94
94
94
94
94
94
94
94
94
94
94
94
94
94
94
94
94
94
94
94
94
94.258778
186.70118
94.039795
187.90546
187.9997
188
188
188
94
94
94
94
94
94
94
94
94
94
94
94
94
187.99999
94
94
94
94
94
94
94
94
188
188
94
94
94
94
94
94
94
94
94
94
94
94
94
94
94
94
94
94
94
94
94
94
94
94
94
94
94.000793
94.0008
94
94
94
94
188
188
187.99989
187.99995
188
188
188
188
188
94
94
94
94
94
94
94
94
94
94
94
94
94
94
94
94
94
94
94
188
188
94
94
94
94
94
94
94
94
94
94
188
188
188
188
94
94
94
94
94
94
94
94
94
94
94
94
188
188
94
94
94
94
94
94
94
94
94
)


417
(
0
227
227
227
227
227
227
227
227
227
227
227
227
227
227
227
227
227
227
227
227
0
0
0
0
0
227
227
227
227
227
113.5
227
227
227
227
227
113.5
113.5
113.5
227
227
227
227
227
227
227
227
226.93664
226.99727
227
227
226.94741
226.99974
227
227
227
113.50131
226.99999
113.5
113.5
227
113.5
227
227
227
227
227
226.99756
226.99991
227
227
227
227
227
227
227
227
227
227
113.50005
113.5144
226.99979
113.50727
113.5
113.5
227
113.5
113.5
113.5
227
113.5
227
227
227
226.98976
226.9944
226.9982
226.99903
227
227
227
227
227
227
113.5
113.5
113.5
227
227
227
226.99999
227
113.5
113.5
113.5
113.5
113.5
113.5
113.5
227
227
227
227
227
113.5
113.5
227
227
113.5
113.5
113.5
113.5
113.5
113.5
113.5
113.5
113.5
113.5
113.5
113.5
113.5
227
227
227
227
226.9998
226.99902
226.99971
226.99998
227
227
227
227
227
227
227
227
227
227
113.5
113.5
113.5
113.5
113.5
227
227
227
227
113.5
113.5
113.5
113.5
113.5
227
227
227
227
227
227
227
227
227
227
227
227
113.5
113.5
113.5
113.5
113.5
113.5
113.5
113.5
113.5
113.5
113.5
113.5
113.5
113.5
113.5
113.5
113.5
113.5
113.5
113.5
113.5
113.5
113.5
113.5
113.50189
113.5
113.5
113.5
113.5
113.5
113.5
113.5
113.5
113.5
113.5
113.51221
113.5
113.51575
113.5
113.5
113.5
113.5
113.5
113.5
113.5
113.5
113.5
113.5
113.5
113.5
113.5
113.5
113.5
113.5
113.5
113.5
113.50289
113.5
113.5
113.5
113.5
113.5
113.5
113.5
113.5
113.5
113.5
113.50095
227
113.5
113.5
113.5
113.5
113.5
113.501
113.63518
113.504
113.5889
113.5
113.5
113.5
113.5
113.5
113.5
113.5
113.5
113.5
113.5
113.5
113.5
113.5
113.5
113.5
113.5
113.5
113.5
113.5
113.5
113.5
113.5
113.81246
225.43174
113.54805
226.88585
226.99964
227
227
227
113.5
113.5
113.5
113.5
113.5
113.5
113.5
113.5
113.5
113.5
113.5
113.5
113.5
226.99999
113.5
113.5
113.5
113.5
113.5
113.5
113.5
113.5
227
227
113.5
113.5
113.5
113.5
113.5
113.5
113.5
113.5
113.5
113.5
113.5
113.5
113.5
113.5
113.5
113.5
113.5
113.5
113.5
113.5
113.5
113.5
113.5
113.5
113.5
113.5
113.50096
113.50097
113.5
113.5
113.5
113.5
227
227
226.99987
226.99994
227
227
227
227
227
113.5
113.5
113.5
113.5
113.5
113.5
113.5
113.5
113.5
113.5
113.5
113.5
113.5
113.5
113.5
113.5
113.5
113.5
113.5
227
227
113.5
113.5
113.5
113.5
113.5
113.5
113.5
113.5
113.5
113.5
227
227
227
227
113.5
113.5
113.5
113.5
113.5
113.5
113.5
113.5
113.5
113.5
113.5
113.5
227
227
113.5
113.5
113.5
113.5
113.5
113.5
113.5
113.5
113.5
)


417
(
0
192
192
192
192
192
192
192
192
192
192
192
192
192
192
192
192
192
192
192
192
0
0
0
0
0
192
192
192
192
192
96
192
192
192
192
192
96
96
96
192
192
192
192
192
192
192
192
191.94641
191.99769
192
192
191.95552
191.99978
192
192
192
96.001104
191.99999
96
96
192
96
192
192
192
192
192
191.99794
191.99992
192
192
192
192
192
192
192
192
192
192
96.000041
96.012179
191.99983
96.006148
96
96
192
96
96
96
192
96
192
192
192
191.99134
191.99527
191.99848
191.99918
192
192
192
192
192
192
96
96
96
192
192
192
191.99999
192
96
96
96
96
96
96
96
192
192
192
192
192
96
96
192
192
96
96
96
96
96
96
96
96
96
96
96
96
96
192
192
192
192
191.99983
191.99917
191.99975
191.99999
192
192
192
192
192
192
192
192
192
192
96
96
96
96
96
192
192
192
192
96
96
96
96
96
192
192
192
192
192
192
192
192
192
192
192
192
96
96
96
96
96
96
96
96
96
96
96
96
96
96
96
96
96
96
96
96
96
96
96
96
96.001598
96
96
96
96
96
96
96
96
96
96
96.010326
96
96.013321
96
96
96
96
96
96
96
96
96
96
96
96
96
96
96
96
96
96
96.002443
96
96
96
96
96
96
96
96
96
96
96.000807
192
96
96
96
96
96
96.000846
96.114337
96.003381
96.075195
96
96
96
96
96
96
96
96
96
96
96
96
96
96
96
96
96
96
96
96
96
96
96.264284
190.67354
96.040642
191.90345
191.9997
192
192
192
96
96
96
96
96
96
96
96
96
96
96
96
96
191.99999
96
96
96
96
96
96
96
96
192
192
96
96
96
96
96
96
96
96
96
96
96
96
96
96
96
96
96
96
96
96
96
96
96
96
96
96
96.00081
96.000817
96
96
96
96
192
192
191.99989
191.99995
192
192
192
192
192
96
96
96
96
96
96
96
96
96
96
96
96
96
96
96
96
96
96
96
192
192
96
96
96
96
96
96
96
96
96
96
192
192
192
192
96
96
96
96
96
96
96
96
96
96
96
96
192
192
96
96
96
96
96
96
96
96
96
)


417
(
0
149
149
149
149
149
149
149
149
149
149
149
149
149
149
149
149
149
149
149
149
0
0
0
0
0
149
149
149
149
149
74.5
149
149
149
149
149
74.5
74.5
74.5
149
149
149
149
149
149
149
149
148.95841
148.99821
149
149
148.96548
148.99983
149
149
149
74.500857
148.99999
74.5
74.5
149
74.5
149
149
149
149
149
148.9984
148.99994
149
149
149
149
149
149
149
149
149
149
74.500031
74.509452
148.99987
74.504771
74.5
74.5
149
74.5
74.5
74.5
149
74.5
149
149
149
148.99328
148.99633
148.99882
148.99937
149
149
149
149
149
149
74.5
74.5
74.5
149
149
149
148.99999
149
74.5
74.5
74.5
74.5
74.5
74.5
74.5
149
149
149
149
149
74.5
74.5
149
149
74.5
74.5
74.5
74.5
74.5
74.5
74.5
74.5
74.5
74.5
74.5
74.5
74.5
149
149
149
149
148.99987
148.99936
148.99981
148.99999
149
149
149
149
149
149
149
149
149
149
74.5
74.5
74.5
74.5
74.5
149
149
149
149
74.5
74.5
74.5
74.5
74.5
149
149
149
149
149
149
149
149
149
149
149
149
74.5
74.5
74.5
74.5
74.5
74.5
74.5
74.5
74.5
74.5
74.5
74.5
74.5
74.5
74.5
74.5
74.5
74.5
74.5
74.5
74.5
74.5
74.5
74.5
74.50124
74.5
74.5
74.5
74.5
74.5
74.5
74.5
74.5
74.5
74.5
74.508013
74.5
74.510338
74.5
74.5
74.5
74.5
74.5
74.5
74.5
74.5
74.5
74.5
74.5
74.5
74.5
74.5
74.5
74.5
74.5
74.5
74.501896
74.5
74.5
74.5
74.5
74.5
74.5
74.5
74.5
74.5
74.5
74.500627
149
74.5
74.5
74.5
74.5
74.5
74.500656
74.58873
74.502623
74.558354
74.5
74.5
74.5
74.5
74.5
74.5
74.5
74.5
74.5
74.5
74.5
74.5
74.5
74.5
74.5
74.5
74.5
74.5
74.5
74.5
74.5
74.5
74.705095
147.97061
74.53154
148.92508
148.99976
149
149
149
74.5
74.5
74.5
74.5
74.5
74.5
74.5
74.5
74.5
74.5
74.5
74.5
74.5
148.99999
74.5
74.5
74.5
74.5
74.5
74.5
74.5
74.5
149
149
74.5
74.5
74.5
74.5
74.5
74.5
74.5
74.5
74.5
74.5
74.5
74.5
74.5
74.5
74.5
74.5
74.5
74.5
74.5
74.5
74.5
74.5
74.5
74.5
74.5
74.5
74.500629
74.500634
74.5
74.5
74.5
74.5
149
149
148.99992
148.99996
149
149
149
149
149
74.5
74.5
74.5
74.5
74.5
74.5
74.5
74.5
74.5
74.5
74.5
74.5
74.5
74.5
74.5
74.5
74.5
74.5
74.5
149
149
74.5
74.5
74.5
74.5
74.5
74.5
74.5
74.5
74.5
74.5
149
149
149
149
74.5
74.5
74.5
74.5
74.5
74.5
74.5
74.5
74.5
74.5
74.5
74.5
149
149
74.5
74.5
74.5
74.5
74.5
74.5
74.5
74.5
74.5
)


417
(
0
107
107
107
107
107
107
107
107
107
107
107
107
107
107
107
107
107
107
107
107
0
0
0
0
0
107
107
107
107
107
53.5
107
107
107
107
107
53.5
53.5
53.5
107
107
107
107
107
107
107
107
106.97013
106.99871
107
107
106.97521
106.99988
107
107
107
53.500615
106.99999
53.5
53.5
107
53.5
107
107
107
107
107
106.99885
106.99996
107
107
107
107
107
107
107
107
107
107
53.500023
53.506788
106.9999
53.503426
53.5
53.5
107
53.5
53.5
53.5
107
53.5
107
107
107
106.99518
106.99736
106.99915
106.99954
107
107
107
107
107
107
53.5
53.5
53.5
107
107
107
106.99999
107
53.5
53.5
53.5
53.5
53.5
53.5
53.5
107
107
107
107
107
53.5
53.5
107
107
53.5
53.5
53.5
53.5
53.5
53.5
53.5
53.5
53.5
53.5
53.5
53.5
53.5
107
107
107
107
106.99991
106.99954
106.99986
106.99999
107
107
107
107
107
107
107
107
107
107
53.5
53.5
53.5
53.5
53.5
107
107
107
107
53.5
53.5
53.5
53.5
53.5
107
107
107
107
107
107
107
107
107
107
107
107
53.5
53.5
53.5
53.5
53.5
53.5
53.5
53.5
53.5
53.5
53.5
53.5
53.5
53.5
53.5
53.5
53.5
53.5
53.5
53.5
53.5
53.5
53.5
53.5
53.500891
53.5
53.5
53.5
53.5
53.5
53.5
53.5
53.5
53.5
53.5
53.505754
53.5
53.507424
53.5
53.5
53.5
53.5
53.5
53.5
53.5
53.5
53.5
53.5
53.5
53.5
53.5
53.5
53.5
53.5
53.5
53.5
53.501361
53.5
53.5
53.5
53.5
53.5
53.5
53.5
53.5
53.5
53.5
53.50045
107
53.5
53.5
53.5
53.5
53.5
53.500471
53.563719
53.501884
53.541906
53.5
53.5
53.5
53.5
53.5
53.5
53.5
53.5
53.5
53.5
53.5
53.5
53.5
53.5
53.5
53.5
53.5
53.5
53.5
53.5
53.5
53.5
53.647283
106.26078
53.522649
106.94619
106.99983
107
107
107
53.5
53.5
53.5
53.5
53.5
53.5
53.5
53.5
53.5
53.5
53.5
53.5
53.5
107
53.5
53.5
53.5
53.5
53.5
53.5
53.5
53.5
107
107
53.5
53.5
53.5
53.5
53.5
53.5
53.5
53.5
53.5
53.5
53.5
53.5
53.5
53.5
53.5
53.5
53.5
53.5
53.5
53.5
53.5
53.5
53.5
53.5
53.5
53.5
53.500452
53.500455
53.5
53.5
53.5
53.5
107
107
106.99994
106.99997
107
107
107
107
107
53.5
53.5
53.5
53.5
53.5
53.5
53.5
53.5
53.5
53.5
53.5
53.5
53.5
53.5
53.5
53.5
53.5
53.5
53.5
107
107
53.5
53.5
53.5
53.5
53.5
53.5
53.5
53.5
53.5
53.5
107
107
107
107
53.5
53.5
53.5
53.5
53.5
53.5
53.5
53.5
53.5
53.5
53.5
53.5
107
107
53.5
53.5
53.5
53.5
53.5
53.5
53.5
53.5
53.5
)

)


// ************************************************************************* //
