/*--------------------------------*- C++ -*----------------------------------*\
  =========                 |
  \\      /  F ield         | OpenFOAM: The Open Source CFD Toolbox
   \\    /   O peration     | Website:  https://openfoam.org
    \\  /    A nd           | Version:  8
     \\/     M anipulation  |
\*---------------------------------------------------------------------------*/
/*   Windows 32 and 64 bit porting by blueCAPE: http://www.bluecape.com.pt   *\
|  Based on Windows porting (2.0.x v4) by Symscape: http://www.symscape.com   |
\*---------------------------------------------------------------------------*/
FoamFile
{
    version     2.0;
    format      ascii;
    class       scalarListList;
    location    "constant/vegetation";
    object      sunViewCoeff;
}
// * * * * * * * * * * * * * * * * * * * * * * * * * * * * * * * * * * * * * //


5
(

417
(
0
717.08284
717.08284
717.08284
717.08284
717.08284
717.08284
717.08284
717.08284
717.08284
717.08284
717.08284
717.08284
717.08284
717.08284
717.08284
717.08284
717.08284
717.08284
717.08284
717.08284
0
0
0
0
0
717.08284
717.08284
717.08284
717.08284
717.08284
222.06862
717.08284
717.08284
717.08284
717.08284
717.08284
222.06862
222.06862
222.06862
717.08284
717.08284
717.08284
717.08284
717.08284
717.08284
717.08284
717.08284
717.22154
717.08778
717.08284
717.08284
716.93968
717.08202
717.08284
717.08284
717.08284
222.05648
717.08286
222.06862
222.06862
717.08284
222.06862
717.08284
717.08284
717.08284
717.08284
717.08284
717.07719
717.08255
717.08284
717.08284
717.08284
717.08284
717.08284
717.08284
717.08284
717.08284
717.08284
717.08284
222.07068
221.93322
717.08323
222.14991
222.06862
222.06862
717.08284
222.06862
222.06862
222.06862
717.08284
222.06862
717.08284
717.08284
717.08284
717.08625
717.06759
717.08352
717.0801
717.08284
717.08284
717.08284
717.08284
717.08284
717.08284
222.06862
222.06862
222.06862
717.08284
717.08284
717.08284
717.08282
717.08284
222.06862
222.06862
222.06862
222.06862
222.06862
222.06862
222.06862
717.08284
717.08284
717.08284
717.08284
717.08284
222.06862
222.06862
717.08284
717.08284
222.06862
222.06862
222.06862
222.06862
222.06862
222.06862
222.06862
222.06862
222.06862
222.06862
222.06862
222.06862
222.06862
717.08284
717.08284
717.08284
717.08284
717.0825
717.08033
717.08207
717.08279
717.08284
717.08284
717.08284
717.08284
717.08284
717.08284
717.08284
717.08284
717.08284
717.08284
222.06862
222.06862
222.06862
222.06862
222.06862
717.08284
717.08284
717.08284
717.08284
222.06862
222.06862
222.06862
222.06862
222.06862
717.08284
717.08284
717.08284
717.08284
717.08284
717.08284
717.08284
717.08284
717.08284
717.08284
717.08284
717.08284
222.06862
222.06862
222.06862
222.06862
222.06862
222.06862
222.06862
222.06862
222.06862
222.06862
222.06862
222.06862
222.06862
222.06862
222.06862
222.06862
222.06862
222.06862
222.06862
222.06862
222.06862
222.06862
222.06862
222.06862
222.08435
222.06862
222.06862
222.06862
222.06862
222.06862
222.06862
222.06862
222.06862
222.06862
222.06862
222.17576
222.06862
222.23548
222.06862
222.06862
222.06862
222.06862
222.06862
222.06862
222.06862
222.06862
222.06862
222.06862
222.06862
222.06862
222.06862
222.06862
222.06862
222.06862
222.06862
222.06862
222.09958
222.06862
222.06862
222.06862
222.06862
222.06862
222.06862
222.06862
222.06862
222.06862
222.06862
222.07733
717.08284
222.06862
222.06862
222.06862
222.06862
222.06862
222.07932
220.80087
222.11128
223.0161
222.06862
222.06862
222.06862
222.06862
222.06862
222.06862
222.06862
222.06862
222.06862
222.06862
222.06862
222.06862
222.06862
222.06862
222.06862
222.06862
222.06862
222.06862
222.06862
222.06862
222.06862
222.06862
218.96283
718.53323
222.45769
717.13373
717.08279
717.08284
717.08284
717.08284
222.06862
222.06862
222.06862
222.06862
222.06862
222.06862
222.06862
222.06862
222.06862
222.06862
222.06862
222.06862
222.06862
717.08281
222.06862
222.06862
222.06862
222.06862
222.06862
222.06862
222.06862
222.06862
717.08284
717.08284
222.06862
222.06862
222.06862
222.06862
222.06862
222.06862
222.06862
222.06862
222.06862
222.06862
222.06862
222.06862
222.06862
222.06862
222.06862
222.06862
222.06862
222.06862
222.06862
222.06862
222.06862
222.06862
222.06862
222.06862
222.06862
222.06862
222.07889
222.07896
222.06862
222.06862
222.06862
222.06862
717.08284
717.08284
717.08254
717.08272
717.08284
717.08284
717.08284
717.08284
717.08284
222.06862
222.06862
222.06862
222.06862
222.06862
222.06862
222.06862
222.06862
222.06862
222.06862
222.06862
222.06862
222.06862
222.06862
222.06862
222.06862
222.06862
222.06862
222.06862
717.08284
717.08284
222.06862
222.06862
222.06862
222.06862
222.06862
222.06862
222.06862
222.06862
222.06862
222.06862
717.08284
717.08284
717.08284
717.08284
222.06862
222.06862
222.06862
222.06862
222.06862
222.06862
222.06862
222.06862
222.06862
222.06862
222.06862
222.06862
717.08284
717.08284
222.06862
222.06862
222.06862
222.06862
222.06862
222.06862
222.06862
222.06862
222.06862
)


417
(
0
585.76158
585.76158
585.76158
585.76158
585.76158
585.76158
585.76158
585.76158
585.76158
585.76158
585.76158
585.76158
585.76158
585.76158
585.76158
585.76158
585.76158
585.76158
585.76158
585.76158
0
0
0
0
0
585.76158
585.76158
585.76158
585.76158
585.76158
169.66998
585.76158
585.76158
585.76158
585.76158
585.76158
169.66998
169.66998
169.66998
585.76158
585.76158
585.76158
585.76158
585.76158
585.76158
585.76158
585.76158
585.79932
585.76162
585.76158
585.76158
585.55471
585.76065
585.76158
585.76158
585.76158
169.66172
585.76158
169.66998
169.66998
585.76158
169.66998
585.76158
585.76158
585.76158
585.76158
585.76158
585.75219
585.76124
585.76158
585.76158
585.76158
585.76158
585.76158
585.76158
585.76158
585.76158
585.76158
585.76158
169.67487
169.57447
585.7616
169.75476
169.66998
169.66998
585.76158
169.66998
169.66998
169.66998
585.76158
169.66998
585.76158
585.76158
585.76158
585.78702
585.73959
585.76613
585.75779
585.76158
585.76158
585.76158
585.76158
585.76158
585.76158
169.66998
169.66998
169.66998
585.76158
585.76158
585.76158
585.76154
585.76158
169.66998
169.66998
169.66998
169.66998
169.66998
169.66998
169.66998
585.76158
585.76158
585.76158
585.76158
585.76158
169.66998
169.66998
585.76158
585.76158
169.66998
169.66998
169.66998
169.66998
169.66998
169.66998
169.66998
169.66998
169.66998
169.66998
169.66998
169.66998
169.66998
585.76158
585.76158
585.76158
585.76158
585.76087
585.75774
585.76043
585.76151
585.76158
585.76158
585.76158
585.76158
585.76158
585.76158
585.76158
585.76158
585.76158
585.76158
169.66998
169.66998
169.66998
169.66998
169.66998
585.76158
585.76158
585.76158
585.76158
169.66998
169.66998
169.66998
169.66998
169.66998
585.76158
585.76158
585.76158
585.76158
585.76158
585.76158
585.76158
585.76158
585.76158
585.76158
585.76158
585.76158
169.66998
169.66998
169.66998
169.66998
169.66998
169.66998
169.66998
169.66998
169.66998
169.66998
169.66998
169.66998
169.66998
169.66998
169.66998
169.66998
169.66998
169.66998
169.66998
169.66998
169.66998
169.66998
169.66998
169.66998
169.67676
169.66998
169.66998
169.66998
169.66998
169.66998
169.66998
169.66998
169.66998
169.66998
169.66998
169.72939
169.66998
169.82752
169.66998
169.66998
169.66998
169.66998
169.66998
169.66998
169.66998
169.66998
169.66998
169.66998
169.66998
169.66998
169.66998
169.66998
169.66998
169.66998
169.66998
169.66998
169.6999
169.66998
169.66998
169.66998
169.66998
169.66998
169.66998
169.66998
169.66998
169.66998
169.66998
169.67557
585.76158
169.66998
169.66998
169.66998
169.66998
169.66998
169.68029
168.78359
169.71086
170.57538
169.66998
169.66998
169.66998
169.66998
169.66998
169.66998
169.66998
169.66998
169.66998
169.66998
169.66998
169.66998
169.66998
169.66998
169.66998
169.66998
169.66998
169.66998
169.66998
169.66998
169.66998
169.66998
167.12742
590.46636
169.81188
586.05725
585.76231
585.76158
585.76158
585.76158
169.66998
169.66998
169.66998
169.66998
169.66998
169.66998
169.66998
169.66998
169.66998
169.66998
169.66998
169.66998
169.66998
585.76154
169.66998
169.66998
169.66998
169.66998
169.66998
169.66998
169.66998
169.66998
585.76158
585.76158
169.66998
169.66998
169.66998
169.66998
169.66998
169.66998
169.66998
169.66998
169.66998
169.66998
169.66998
169.66998
169.66998
169.66998
169.66998
169.66998
169.66998
169.66998
169.66998
169.66998
169.66998
169.66998
169.66998
169.66998
169.66998
169.66998
169.67992
169.67994
169.66998
169.66998
169.66998
169.66998
585.76158
585.76158
585.76108
585.76137
585.76158
585.76158
585.76158
585.76158
585.76158
169.66998
169.66998
169.66998
169.66998
169.66998
169.66998
169.66998
169.66998
169.66998
169.66998
169.66998
169.66998
169.66998
169.66998
169.66998
169.66998
169.66998
169.66998
169.66998
585.76158
585.76158
169.66998
169.66998
169.66998
169.66998
169.66998
169.66998
169.66998
169.66998
169.66998
169.66998
585.76158
585.76158
585.76158
585.76158
169.66998
169.66998
169.66998
169.66998
169.66998
169.66998
169.66998
169.66998
169.66998
169.66998
169.66998
169.66998
585.76158
585.76158
169.66998
169.66998
169.66998
169.66998
169.66998
169.66998
169.66998
169.66998
169.66998
)


417
(
0
536.2201
536.2201
536.2201
536.2201
536.2201
536.2201
536.2201
536.2201
536.2201
536.2201
536.2201
536.2201
536.2201
536.2201
536.2201
536.2201
536.2201
536.2201
536.2201
536.2201
0
0
0
0
0
536.2201
536.2201
536.2201
536.2201
536.2201
129.78276
536.2201
536.2201
536.2201
536.2201
536.2201
129.78276
129.78276
129.78276
536.2201
536.2201
536.2201
536.2201
536.2201
536.2201
536.2201
536.2201
536.16368
536.21546
536.2201
536.2201
535.94003
536.219
536.2201
536.2201
536.2201
129.77697
536.22008
129.78276
129.78276
536.2201
129.78276
536.2201
536.2201
536.2201
536.2201
536.2201
536.20658
536.21969
536.2201
536.2201
536.2201
536.2201
536.2201
536.2201
536.2201
536.2201
536.2201
536.2201
129.79066
129.71149
536.21978
129.88005
129.78276
129.78276
536.2201
129.78276
129.78276
129.78276
536.2201
129.78276
536.2201
536.2201
536.2201
536.26809
536.19035
536.22862
536.21507
536.2201
536.2201
536.2201
536.2201
536.2201
536.2201
129.78276
129.78276
129.78276
536.2201
536.2201
536.2201
536.22002
536.2201
129.78276
129.78276
129.78276
129.78276
129.78276
129.78276
129.78276
536.2201
536.2201
536.2201
536.2201
536.2201
129.78276
129.78276
536.2201
536.2201
129.78276
129.78276
129.78276
129.78276
129.78276
129.78276
129.78276
129.78276
129.78276
129.78276
129.78276
129.78276
129.78276
536.2201
536.2201
536.2201
536.2201
536.21899
536.21477
536.21852
536.22001
536.2201
536.2201
536.2201
536.2201
536.2201
536.2201
536.2201
536.2201
536.2201
536.2201
129.78276
129.78276
129.78276
129.78276
129.78276
536.2201
536.2201
536.2201
536.2201
129.78276
129.78276
129.78276
129.78276
129.78276
536.2201
536.2201
536.2201
536.2201
536.2201
536.2201
536.2201
536.2201
536.2201
536.2201
536.2201
536.2201
129.78276
129.78276
129.78276
129.78276
129.78276
129.78276
129.78276
129.78276
129.78276
129.78276
129.78276
129.78276
129.78276
129.78276
129.78276
129.78276
129.78276
129.78276
129.78276
129.78276
129.78276
129.78276
129.78276
129.78276
129.78247
129.78276
129.78276
129.78276
129.78276
129.78276
129.78276
129.78276
129.78276
129.78276
129.78276
129.80704
129.78276
129.94971
129.78276
129.78276
129.78276
129.78276
129.78276
129.78276
129.78276
129.78276
129.78276
129.78276
129.78276
129.78276
129.78276
129.78276
129.78276
129.78276
129.78276
129.78276
129.8151
129.78276
129.78276
129.78276
129.78276
129.78276
129.78276
129.78276
129.78276
129.78276
129.78276
129.78624
536.2201
129.78276
129.78276
129.78276
129.78276
129.78276
129.79387
129.1311
129.82663
130.75232
129.78276
129.78276
129.78276
129.78276
129.78276
129.78276
129.78276
129.78276
129.78276
129.78276
129.78276
129.78276
129.78276
129.78276
129.78276
129.78276
129.78276
129.78276
129.78276
129.78276
129.78276
129.78276
127.44943
544.30337
129.72432
536.76707
536.22161
536.2201
536.2201
536.2201
129.78276
129.78276
129.78276
129.78276
129.78276
129.78276
129.78276
129.78276
129.78276
129.78276
129.78276
129.78276
129.78276
536.22005
129.78276
129.78276
129.78276
129.78276
129.78276
129.78276
129.78276
129.78276
536.2201
536.2201
129.78276
129.78276
129.78276
129.78276
129.78276
129.78276
129.78276
129.78276
129.78276
129.78276
129.78276
129.78276
129.78276
129.78276
129.78276
129.78276
129.78276
129.78276
129.78276
129.78276
129.78276
129.78276
129.78276
129.78276
129.78276
129.78276
129.79352
129.7935
129.78276
129.78276
129.78276
129.78276
536.2201
536.2201
536.21939
536.21979
536.2201
536.2201
536.2201
536.2201
536.2201
129.78276
129.78276
129.78276
129.78276
129.78276
129.78276
129.78276
129.78276
129.78276
129.78276
129.78276
129.78276
129.78276
129.78276
129.78276
129.78276
129.78276
129.78276
129.78276
536.2201
536.2201
129.78276
129.78276
129.78276
129.78276
129.78276
129.78276
129.78276
129.78276
129.78276
129.78276
536.2201
536.2201
536.2201
536.2201
129.78276
129.78276
129.78276
129.78276
129.78276
129.78276
129.78276
129.78276
129.78276
129.78276
129.78276
129.78276
536.2201
536.2201
129.78276
129.78276
129.78276
129.78276
129.78276
129.78276
129.78276
129.78276
129.78276
)


417
(
0
411.8157
411.8157
411.8157
411.8157
411.8157
411.8157
411.8157
411.8157
411.8157
411.8157
411.8157
411.8157
411.8157
411.8157
411.8157
411.8157
411.8157
411.8157
411.8157
411.8157
0
0
0
0
0
411.8157
411.8157
411.8157
411.8157
411.8157
61.054291
411.8157
411.8157
411.8157
411.8157
411.8157
61.054291
61.054291
61.054291
411.8157
411.8157
411.8157
411.8157
411.8157
411.8157
411.8157
411.8157
411.6693
411.80696
411.8157
411.8157
411.51273
411.81465
411.8157
411.8157
411.8157
61.051653
411.81566
61.054291
61.054291
411.8157
61.054291
411.8157
411.8157
411.8157
411.8157
411.8157
411.80044
411.81529
411.8157
411.8157
411.8157
411.8157
411.8157
411.8157
411.8157
411.8157
411.8157
411.8157
61.063874
61.016159
411.81507
61.149232
61.054291
61.054291
411.8157
61.054291
61.054291
61.054291
411.8157
61.054291
411.8157
411.8157
411.8157
411.87837
411.78354
411.82678
411.81035
411.8157
411.8157
411.8157
411.8157
411.8157
411.8157
61.054291
61.054291
61.054291
411.8157
411.8157
411.8157
411.81561
411.8157
61.054291
61.054291
61.054291
61.054291
61.054291
61.054291
61.054291
411.8157
411.8157
411.8157
411.8157
411.8157
61.054291
61.054291
411.8157
411.8157
61.054291
61.054291
61.054291
61.054291
61.054291
61.054291
61.054291
61.054291
61.054291
61.054291
61.054291
61.054291
61.054291
411.8157
411.8157
411.8157
411.8157
411.81439
411.80982
411.81398
411.81561
411.8157
411.8157
411.8157
411.8157
411.8157
411.8157
411.8157
411.8157
411.8157
411.8157
61.054291
61.054291
61.054291
61.054291
61.054291
411.8157
411.8157
411.8157
411.8157
61.054291
61.054291
61.054291
61.054291
61.054291
411.8157
411.8157
411.8157
411.8157
411.8157
411.8157
411.8157
411.8157
411.8157
411.8157
411.8157
411.8157
61.054291
61.054291
61.054291
61.054291
61.054291
61.054291
61.054291
61.054291
61.054291
61.054291
61.054291
61.054291
61.054291
61.054291
61.054291
61.054291
61.054291
61.054291
61.054291
61.054291
61.054291
61.054291
61.054291
61.054291
61.04739
61.054291
61.054291
61.054291
61.054291
61.054291
61.054291
61.054291
61.054291
61.054291
61.054291
61.041994
61.054291
61.205876
61.054291
61.054291
61.054291
61.054291
61.054291
61.054291
61.054291
61.054291
61.054291
61.054291
61.054291
61.054291
61.054291
61.054291
61.054291
61.054291
61.054291
61.054291
61.08422
61.054291
61.054291
61.054291
61.054291
61.054291
61.054291
61.054291
61.054291
61.054291
61.054291
61.05528
411.8157
61.054291
61.054291
61.054291
61.054291
61.054291
61.064546
60.71804
61.094611
61.943556
61.054291
61.054291
61.054291
61.054291
61.054291
61.054291
61.054291
61.054291
61.054291
61.054291
61.054291
61.054291
61.054291
61.054291
61.054291
61.054291
61.054291
61.054291
61.054291
61.054291
61.054291
61.054291
59.256439
421.91208
60.815848
412.52381
411.81775
411.8157
411.8157
411.8157
61.054291
61.054291
61.054291
61.054291
61.054291
61.054291
61.054291
61.054291
61.054291
61.054291
61.054291
61.054291
61.054291
411.81565
61.054291
61.054291
61.054291
61.054291
61.054291
61.054291
61.054291
61.054291
411.8157
411.8157
61.054291
61.054291
61.054291
61.054291
61.054291
61.054291
61.054291
61.054291
61.054291
61.054291
61.054291
61.054291
61.054291
61.054291
61.054291
61.054291
61.054291
61.054291
61.054291
61.054291
61.054291
61.054291
61.054291
61.054291
61.054291
61.054291
61.064253
61.064197
61.054291
61.054291
61.054291
61.054291
411.8157
411.8157
411.8149
411.81535
411.8157
411.8157
411.8157
411.8157
411.8157
61.054291
61.054291
61.054291
61.054291
61.054291
61.054291
61.054291
61.054291
61.054291
61.054291
61.054291
61.054291
61.054291
61.054291
61.054291
61.054291
61.054291
61.054291
61.054291
411.8157
411.8157
61.054291
61.054291
61.054291
61.054291
61.054291
61.054291
61.054291
61.054291
61.054291
61.054291
411.8157
411.8157
411.8157
411.8157
61.054291
61.054291
61.054291
61.054291
61.054291
61.054291
61.054291
61.054291
61.054291
61.054291
61.054291
61.054291
411.8157
411.8157
61.054291
61.054291
61.054291
61.054291
61.054291
61.054291
61.054291
61.054291
61.054291
)


417
(
0
284.42858
284.42858
284.42858
284.42858
284.42858
284.42858
275.80503
284.42858
181.18793
284.42858
284.42858
212.8623
284.42858
258.78633
118.7389
284.42858
241.63502
142.77558
155.14188
155.1459
0
0
0
0
0
284.42858
284.42858
284.42858
284.42858
284.42858
0
284.42858
284.42858
284.42858
284.42858
284.42858
0
0
0
284.42858
284.42858
284.42858
284.42858
284.42858
284.42858
284.42858
284.42858
284.20296
284.41639
284.42858
284.42858
284.12635
284.42765
284.42858
284.42858
284.42858
0
284.42852
0
0
284.42858
0
284.42858
284.42858
284.42858
284.42858
284.42858
284.41275
284.42821
284.42858
284.42858
284.42858
284.42858
284.42858
284.42858
284.42858
284.42858
284.42858
284.42858
0
0
284.42769
0
0
0
284.42858
0
0
0
284.42858
0
284.42858
284.42858
284.42858
284.50112
284.39652
284.44137
284.42332
284.42858
284.42858
284.42858
284.42858
284.42858
284.42858
0
0
0
284.42858
284.42858
284.42858
284.42847
284.42858
0
0
0
0
0
0
0
284.42858
284.42858
284.42858
284.42858
284.42858
0
0
284.42858
284.42858
0
0
0
0
0
0
0
0
0
0
0
0
0
284.42858
284.42858
284.42858
284.42858
284.42716
284.42261
284.42684
284.42849
284.42858
284.42858
284.42858
284.42858
284.42858
284.42858
284.42858
284.42858
284.42858
284.42858
0
0
0
0
0
284.42858
284.42858
284.42858
284.42858
0
0
0
0
0
284.42858
284.42858
284.42858
284.42858
284.42858
284.42858
284.42858
284.42858
284.42858
284.42858
284.42858
284.42858
0
0
0
0
0
0
0
0
0
0
0
0
0
0
0
0
0
0
0
0
0
0
0
0
0
0
0
0
0
0
0
0
0
0
0
0
0
0
0
0
0
0
0
0
0
0
0
0
0
0
0
0
0
0
0
0
0
0
0
0
0
0
0
0
0
0
0
0
284.42858
0
0
0
0
0
0
0
0
0
0
0
0
0
0
0
0
0
0
0
0
0
0
0
0
0
0
0
0
0
0
0
0
295.75293
0
285.24339
284.43101
284.42858
284.42858
284.42858
0
0
0
0
0
0
0
0
0
0
0
0
0
284.42853
0
0
0
0
0
0
0
0
284.42858
284.42858
0
0
0
0
0
0
0
0
0
0
0
0
0
0
0
0
0
0
0
0
0
0
0
0
0
0
0
0
0
0
0
0
284.42858
284.42858
284.42774
284.42821
284.42858
284.42858
284.42858
284.42858
284.42858
0
0
0
0
0
0
0
0
0
0
0
0
0
0
0
0
0
0
0
284.42858
284.42858
0
0
0
0
0
0
0
0
0
0
284.42858
284.42858
284.42858
284.42858
0
0
0
0
0
0
0
0
0
0
0
0
284.42858
284.42858
0
0
0
0
0
0
0
0
0
)

)


// ************************************************************************* //
