/*--------------------------------*- C++ -*----------------------------------*\
  =========                 |
  \\      /  F ield         | OpenFOAM: The Open Source CFD Toolbox
   \\    /   O peration     | Website:  https://openfoam.org
    \\  /    A nd           | Version:  8
     \\/     M anipulation  |
\*---------------------------------------------------------------------------*/
/*   Windows 32 and 64 bit porting by blueCAPE: http://www.bluecape.com.pt   *\
|  Based on Windows porting (2.0.x v4) by Symscape: http://www.symscape.com   |
\*---------------------------------------------------------------------------*/
FoamFile
{
    version     2.0;
    format      ascii;
    class       scalarListList;
    location    "constant/vegetation";
    object      F;
}
// * * * * * * * * * * * * * * * * * * * * * * * * * * * * * * * * * * * * * //


77
(

925
(
8.0868067e-06
5.8270741e-06
3.9088389e-06
5.2538295e-06
9.0722088e-06
1.2303243e-05
1.1054289e-05
4.097712e-07
1.2693359e-06
2.4723122e-06
3.5580965e-06
2.7064236e-06
7.2283543e-06
6.4806494e-06
4.303541e-06
4.749196e-06
1.0185521e-05
1.1390866e-05
5.9074814e-06
5.2634795e-08
1.874687e-06
5.0424676e-07
6.929773e-09
2.2220846e-06
3.2451567e-06
1.03199e-08
2.9637826e-06
2.6189376e-07
5.727421e-07
5.2232538e-07
4.5052036e-08
1.1157616e-05
4.9697844e-08
1.2514462e-05
4.4004192e-08
9.9550721e-06
4.8059085e-08
8.9065499e-06
2.6578986e-08
4.8381875e-06
2.4167819e-08
5.323584e-06
5.2395539e-09
1.5623882e-06
6.5053997e-08
2.3072834e-06
2.0007977e-08
4.4067092e-06
2.2007019e-08
4.0214886e-06
2.8143163e-06
2.4400875e-06
4.9780919e-08
1.4937133e-05
1.5979029e-07
1.3916143e-05
3.3976012e-06
4.3786954e-06
8.5669618e-06
1.3407524e-05
1.5509974e-06
7.1532555e-06
1.0611715e-05
6.1614485e-06
1.9285295e-06
2.1590543e-06
3.9726393e-08
7.19248e-06
3.5817771e-08
7.9925632e-06
1.7313574e-06
1.5594863e-06
1.1574219e-06
1.0527711e-06
2.9290844e-08
6.4900598e-06
3.235282e-08
5.8709096e-06
1.2753358e-06
1.4085222e-06
3.6731362e-09
4.9708765e-07
8.6265577e-10
8.4934672e-09
6.1590474e-07
6.2224324e-07
3.6783358e-09
3.0553685e-06
1.056504e-08
2.7343854e-06
6.3231588e-07
6.765154e-07
8.7673782e-07
9.5966754e-07
1.793862e-08
3.3581895e-06
1.5192642e-08
3.6749935e-06
8.020974e-07
7.3496144e-07
5.0435778e-07
3.2240448e-07
7.0495907e-07
5.0489647e-07
8.5883197e-07
8.7908827e-07
3.9349071e-05
5.1100182e-05
4.7316488e-05
4.2826984e-05
4.7837671e-05
2.1728731e-05
3.9243008e-05
5.8345323e-05
1.7650663e-05
2.2409514e-05
2.7992276e-05
4.9706189e-05
2.6475902e-05
3.2225454e-05
2.3222047e-06
2.0388761e-06
3.7872868e-06
2.586222e-06
2.8322698e-06
6.9374155e-05
6.5457749e-05
2.6081003e-05
2.8739323e-05
2.6543005e-05
2.3618036e-05
2.1207748e-05
2.9276831e-05
2.3237735e-05
1.4558436e-05
1.8214869e-05
1.9360035e-05
4.9038586e-06
5.6320405e-06
8.2701662e-06
6.6847691e-06
1.0412718e-05
1.5045415e-05
4.3489523e-06
3.8887052e-06
3.1469699e-06
3.4923725e-06
2.1258458e-06
2.3380452e-06
2.8433591e-06
2.5753659e-06
1.4042913e-06
1.7334119e-06
3.461649e-06
3.6339996e-06
3.2703471e-06
3.0604196e-06
3.3191597e-05
2.5555273e-05
3.1479881e-05
2.707264e-05
3.4445427e-05
2.901406e-05
2.8211619e-05
3.5277781e-05
3.565961e-05
2.9700968e-05
3.523059e-05
3.5840739e-05
2.9508556e-05
3.5728461e-05
2.9726351e-05
1.0829853e-06
1.1699157e-06
1.3517171e-06
1.2483351e-06
1.9349215e-06
1.7645294e-06
1.4752668e-06
1.612519e-06
2.7043002e-06
2.3621339e-06
2.753427e-06
3.1620015e-06
4.3972166e-06
5.1177384e-06
3.0150379e-06
3.3010632e-06
3.8595341e-06
3.5268597e-06
3.0467824e-06
3.855996e-06
3.3511719e-06
3.5031583e-06
1.5458526e-06
1.9779806e-06
1.7451483e-06
2.2838291e-06
2.0776122e-06
1.9012803e-06
2.515653e-06
2.7621764e-06
4.0256876e-06
4.2225734e-06
4.9196892e-06
4.6948367e-06
5.6358969e-06
6.1695765e-06
5.4239853e-06
5.6862165e-06
5.1818424e-06
5.9449071e-06
4.2722846e-06
4.3021054e-06
3.9066382e-06
4.7030325e-06
3.8063965e-06
3.5647444e-06
4.1646419e-06
4.4430852e-06
4.6060139e-06
5.3930589e-06
5.0653747e-06
4.9091678e-06
1.0570218e-06
3.3985726e-05
3.2492732e-05
6.0461164e-05
4.1149115e-05
5.6480296e-05
3.560478e-05
2.1061639e-05
1.8707668e-05
1.5498632e-05
1.9181992e-05
7.7336533e-06
8.7646868e-06
1.1434534e-05
1.1266494e-05
1.2322048e-05
1.5906796e-05
1.0279197e-05
1.4925539e-05
3.4186495e-06
3.7643382e-06
5.6238765e-06
5.0584728e-06
4.5740428e-06
4.1454355e-06
6.1674372e-06
6.8286902e-06
6.9602761e-06
6.2399956e-06
9.2397988e-06
1.0262528e-05
5.0591565e-06
5.6106429e-06
8.3551e-06
7.5165371e-06
2.7497876e-05
2.5908002e-05
2.7117059e-05
2.7423144e-05
2.5752218e-05
2.537126e-05
2.30989e-05
2.4595733e-05
2.2779517e-05
2.1140431e-05
2.6561405e-05
2.5730627e-05
2.3876251e-05
2.4783146e-05
4.0434884e-06
4.3179247e-06
3.7318636e-06
5.1805157e-06
3.0754643e-06
2.7816063e-06
3.6945934e-06
4.5489949e-06
2.3018353e-06
2.5390613e-06
3.8200687e-06
3.0806139e-06
6.4442802e-06
4.8648755e-06
5.8384214e-06
5.3215515e-06
6.9104077e-06
6.0906264e-06
5.7270074e-06
7.3610622e-06
8.3276946e-06
6.9386031e-06
8.0628805e-06
6.4137576e-06
7.7264585e-06
6.6970369e-06
0.023163504
0.055986615
0.00020324459
0.00011603818
0.00019226064
0.00014699713
0.00015813492
7.881837e-05
0.00010672357
6.6530257e-05
4.6532946e-05
4.3492566e-07
2.6261115e-06
1.8138868e-05
1.8566486e-05
4.8717271e-07
9.7838454e-05
2.993774e-07
1.1359451e-06
0.00021367262
1.1917146e-06
6.219734e-07
0.00012587527
7.0440814e-07
1.0749645e-06
0.0001809385
1.0141547e-06
8.8592537e-05
2.1232651e-07
2.4963537e-07
0.00013620835
8.2609776e-07
7.6630259e-07
0.0001694949
8.8888574e-07
9.5030947e-07
1.6494564e-05
1.2717009e-05
2.2226672e-05
2.5060229e-05
2.2355202e-05
1.8704794e-05
2.0211237e-05
2.8024237e-05
3.0594338e-05
3.5641468e-05
3.308527e-05
3.8282599e-05
4.0955011e-05
0.00046515894
0.00045305869
6.4683063e-05
8.2854753e-05
8.8641342e-05
9.0786443e-05
8.3976442e-05
4.9715698e-05
5.8584147e-05
3.6470702e-05
0.00054696967
0.00061764448
0.00044175936
0.00054159888
0.00032673192
0.0003844758
0.00010241585
0.00048787573
9.4851281e-05
0.00026665412
5.4365778e-05
0.00063349176
0.00058537783
0.00066948631
0.00038435554
3.3830009e-05
3.1877791e-05
7.5162311e-05
6.551612e-05
6.3823129e-05
4.479113e-05
5.6179556e-05
3.270995e-05
4.2671091e-05
5.1612606e-05
4.6369898e-05
4.6170972e-05
7.1000035e-05
7.6578353e-05
9.5040916e-05
8.4676913e-05
0.0001139907
0.00010052322
7.0933053e-05
5.7598675e-05
8.4324064e-05
0.00013878645
0.00010815589
0.00012244844
0.00012954878
0.00011230694
0.00013745971
0.00013398054
0.0059811864
0.0061478458
0.002623004
1.619918e-06
4.7871086e-05
1.5101112e-07
3.4550797e-05
8.7571284e-06
1.3197231e-05
1.6989835e-05
0.036471659
3.7882666e-05
7.6013601e-05
7.5045795e-06
3.1159963e-05
4.9681997e-05
3.2971377e-05
1.7151558e-05
1.8087568e-05
7.6011218e-08
7.4025053e-05
7.0416888e-08
7.8405839e-05
1.6240176e-05
1.5347062e-05
7.8327419e-08
8.7298296e-05
7.186479e-08
8.2843924e-05
2.0894223e-05
1.9356321e-05
3.6381382e-07
9.4300049e-05
8.0865408e-07
9.6615159e-05
2.295398e-05
2.6464065e-05
4.1619032e-07
9.1105763e-05
2.6629457e-07
9.4403933e-05
1.3252022e-05
1.2762421e-05
1.9006481e-07
6.9710197e-05
5.9023446e-08
6.5033269e-05
1.3826698e-05
1.4475241e-05
2.6455061e-07
5.5117304e-05
1.4025027e-07
6.0237597e-05
1.3484348e-05
1.2803631e-05
0.00030266161
0.00026311244
0.00032171045
0.00040384154
0.00043425968
0.00037595539
0.00035905447
0.00033544015
0.00043587865
0.00045738819
0.00043078122
0.00048179278
0.00043618579
0.00047123205
0.00041473363
0.00041757192
6.3389095e-05
0.00047222605
0.00048792174
0.00012610727
0.00012542794
0.00013890565
0.00011304091
0.00011050443
7.8013755e-05
9.2046245e-05
9.7380961e-05
5.5864729e-05
7.1312751e-05
0.00015696366
0.00013515393
0.00014252907
0.00014912226
0.0001626086
0.00015125685
0.00014780911
0.00016623617
0.00016708765
0.00015042852
0.00015247707
0.00016476148
0.00016825797
0.00015305402
0.00015339316
0.00016804732
3.7109966e-05
3.521305e-05
3.1503248e-05
3.3352083e-05
3.9153482e-05
4.1588847e-05
4.9760481e-05
4.4900887e-05
3.5892571e-05
2.5054877e-05
2.6368772e-05
2.9670661e-05
2.7947011e-05
2.4225219e-05
2.3485641e-05
0.00013508112
0.00013
0.00014414425
0.00011885638
0.00015755691
0.00014742986
0.00016150727
0.00014382656
0.00015318718
0.00013545194
0.00014880486
0.00013981564
0.00011049117
0.00011543917
0.00011934346
0.00010714618
0.00011434204
0.00012913554
0.00011838653
0.00012407203
0.00010089793
0.00011194581
0.00010400447
0.00010849333
9.7753628e-05
0.00010134471
0.00010496931
9.455361e-05
9.761712e-05
9.1305314e-05
0.0004759007
0.00045813396
0.00015151684
0.00011121815
0.00010879289
0.00011181555
0.00010568113
0.00010281774
9.4259009e-05
9.1299071e-05
9.7161316e-05
0.00010000701
8.5279544e-05
8.8294606e-05
6.1488718e-05
6.4391473e-05
8.3511133e-05
8.9018659e-05
0.00012467335
0.00011129015
0.00010299401
0.0001272813
7.388558e-05
9.5038806e-05
6.8738781e-05
9.9789019e-05
5.9184798e-05
5.6304566e-05
8.2654072e-05
8.6418203e-05
5.0342984e-05
5.3361149e-05
7.8560595e-05
7.3560934e-05
3.8342484e-05
5.0421798e-05
4.101123e-05
6.0749374e-05
4.685254e-05
4.3675689e-05
5.7205126e-05
6.8342704e-05
0.00011905277
0.00011538825
0.00012992412
0.00013363229
0.0001073144
0.00011148435
0.00012551252
0.00011974206
0.00012163736
0.00012520417
0.000126749
0.00013580878
0.00014811464
0.00014390762
0.00013505656
0.00015278697
0.00013561821
0.00014039184
0.00013063371
0.00014934919
0.00010212231
0.00011334566
0.00013593492
0.00014374721
0.0001487115
0.00013926609
0.00015292369
0.00014927675
0.00015443607
0.00015866162
0.00015247988
0.00015461443
0.00016085855
0.00015777466
0.00015490751
0.0001554223
0.00016150972
0.00016083939
0.0072966123
0.011528884
0.019667361
0.012496596
0.011600503
0.019138013
8.8764881e-07
7.1902614e-06
4.7715545e-06
1.8766138e-05
7.3659521e-06
9.2641455e-06
2.944298e-05
2.6068299e-05
1.3796314e-05
1.8210895e-05
2.2328858e-05
5.2069566e-05
5.0772179e-05
4.912068e-05
3.2325905e-05
8.4112421e-08
3.0108148e-05
7.7349152e-08
2.6047315e-05
7.6925178e-06
7.3234755e-06
3.2772669e-08
4.1649503e-05
3.9570752e-08
3.8849072e-05
8.1240996e-06
8.7026191e-06
1.0535574e-07
3.3078823e-05
1.4606561e-07
3.5951726e-05
7.0289224e-05
6.6130038e-05
5.8261183e-05
5.7080095e-08
6.2113293e-05
1.0730071e-05
1.1456915e-05
4.6771153e-08
4.461398e-05
4.3471369e-08
4.7752556e-05
1.0040392e-05
9.3526577e-06
5.0075775e-08
5.4578564e-05
5.3507043e-08
5.107312e-05
7.0141201e-06
7.0184678e-06
0.00016159471
2.7578264e-05
3.1305411e-05
3.7453786e-05
3.4570782e-05
1.2863888e-05
3.0783483e-05
3.7807596e-05
3.3153392e-05
3.5046149e-05
2.3263169e-05
1.8290827e-05
4.1910072e-05
4.1787171e-05
3.8710482e-05
4.5220061e-05
4.144332e-05
3.6132063e-05
3.835746e-05
4.8682151e-05
4.6248467e-05
5.0074404e-05
5.9340052e-05
5.4351224e-05
2.5723354e-05
2.0954613e-05
2.7576366e-05
1.9771578e-05
1.460775e-05
1.5589872e-05
1.7875529e-05
1.6678579e-05
5.2811779e-05
4.4700447e-05
5.0704291e-05
4.8177054e-05
4.7100501e-05
2.1860509e-05
1.9139157e-05
2.0461375e-05
1.380094e-05
1.330002e-05
2.2632313e-05
3.0065104e-05
2.4446084e-05
3.6496315e-05
2.8358048e-05
2.622993e-05
3.4595469e-05
4.1653655e-05
5.3300146e-05
3.07331e-05
3.290591e-05
4.5223704e-05
0.00085913031
0.0059440365
0.0025767174
0.0072551106
0.05936563
0.046529225
4.8878217e-05
5.1306589e-05
4.6301859e-05
4.365284e-05
0.0052394416
0.004987986
0.0069825593
0.026648127
0.046660889
0.029762224
0.042190705
0.016397327
0.010879362
0.023286871
0.031562731
7.7151823e-06
5.9440228e-06
2.1540862e-05
1.2273198e-06
1.040893e-05
8.6946907e-06
2.0239541e-05
1.539918e-05
1.4998628e-05
2.4714682e-05
2.1226711e-05
0.0014582108
0.0034272945
0.0054718174
0.0018054214
0.0034961641
5.8752026e-05
0.0002507262
0.00025061094
4.0748318e-05
0.00023978753
0.00023278489
0.0002389873
0.00023179169
5.3797024e-05
3.6272881e-05
3.0673582e-05
1.4190299e-07
2.244208e-07
4.9253309e-05
1.3931409e-06
0.00024892158
1.3835561e-06
1.3925076e-06
0.00024855438
1.381583e-06
6.4165862e-05
4.5039453e-05
1.8532089e-07
1.9190876e-07
0.00024523366
0.0002244191
0.00024462749
1.3299435e-06
1.3599597e-06
0.00022326387
1.290228e-06
1.244799e-06
8.9843662e-06
8.6550016e-06
9.7401144e-06
1.0762624e-05
5.9916568e-05
5.9499693e-05
5.9890133e-05
5.9415423e-05
5.7199256e-05
5.8503587e-05
5.55227e-05
5.3548351e-05
0.00076424075
0.00069320245
2.002515e-05
0.00013814848
0.00013809084
0.00013188351
0.00011287876
0.00012824045
0.00010726236
0.000499085
0.00087003844
0.00065396928
0.00063510768
0.00082508343
0.00055339276
0.00060027067
2.0110404e-05
0.00087305176
1.6216553e-05
0.00093707648
0.00089923163
0.00095914643
2.3863111e-05
0.0001369631
0.00013498313
0.00011866552
0.00012354344
0.00010093595
0.0020071002
0.015799529
0.035199292
0.00043581624
0.00045976476
0.00059817636
0.00073250448
0.0004932745
0.0001515305
0.00014122825
0.00011855522
0.0001362212
0.00012924493
0.0007975769
0.00055309672
0.00074589212
0.00051776865
0.00058996481
0.00049954967
0.00014581723
0.0006291627
0.00064571399
0.00015145135
0.00011879248
0.00058586995
0.00063284955
0.00066606434
0.00071638789
0.000827852
0.00075009722
0.00069631028
0.00080842096
0.0007394503
0.00080412756
0.0001673713
0.00010588888
0.00011022673
0.00010083629
0.00010337342
9.5227288e-05
0.00013780052
0.00014758084
0.00013422476
0.0001631755
0.00012742852
0.00013202011
0.00010902459
0.00012339436
0.00011341714
0.00012316275
0.00014608178
0.0001192492
9.6312477e-05
9.2414702e-05
0.00012520564
0.00012208865
0.00010012306
0.00010400671
0.00087158498
8.4732815e-05
8.8485852e-05
0.00011542833
0.00011888084
0.00011177209
0.0001079534
0.0001286402
0.00011484955
0.00011477843
0.00013538845
0.00011771872
0.00010872785
0.00012564335
0.00013557011
0.0001936576
0.00013686541
0.00016793434
0.00015650428
0.00015351344
0.00017457411
0.00017704247
)


889
(
2.2447205e-07
9.5313421e-08
2.3612308e-05
1.0490052e-07
2.6549674e-05
9.2428679e-08
2.1013133e-05
1.0119787e-07
1.8750093e-05
5.5099844e-08
1.0018678e-05
4.996841e-08
1.1054215e-05
1.0637529e-08
3.1692638e-06
1.3183394e-07
4.6908126e-06
4.1150284e-08
9.1002733e-06
4.5380648e-08
8.2822849e-06
5.9521587e-06
5.1486911e-06
1.0556898e-07
3.1836642e-05
3.3970615e-07
2.9593653e-05
7.2021782e-06
9.3030979e-06
1.8333101e-05
2.8637954e-05
3.3065159e-06
1.5301714e-05
2.2659944e-05
1.3122202e-05
4.049466e-06
4.5447669e-06
8.3229903e-08
1.5059346e-05
7.4845543e-08
1.6780481e-05
3.6262188e-06
3.2577976e-06
2.398834e-06
2.1761788e-06
6.0883508e-08
1.3551162e-05
6.7426921e-08
1.2224483e-05
2.650222e-06
2.9347271e-06
1.2508557e-06
1.2611021e-06
7.4917022e-09
6.2428983e-06
2.1564697e-08
5.5728371e-06
1.2871703e-06
1.3805039e-06
1.802819e-06
1.9785106e-06
3.6798637e-08
6.8795055e-06
3.108637e-08
7.548427e-06
1.6450739e-06
1.5035342e-06
1.0212838e-06
6.5243281e-07
1.4262598e-06
4.1094142e-06
5.5834332e-05
4.4589468e-05
6.1248249e-05
4.912158e-05
3.0860623e-05
3.8468317e-05
4.1096654e-05
1.0335852e-05
1.1897261e-05
1.7544758e-05
1.4151635e-05
2.2135052e-05
3.2046172e-05
9.1449551e-06
8.1574509e-06
6.5684731e-06
7.3078979e-06
4.3914025e-06
4.8423247e-06
5.9195373e-06
5.347733e-06
2.8371456e-06
3.4983031e-06
2.1938325e-06
2.37492e-06
2.7569576e-06
2.5399662e-06
3.9866603e-06
3.6262335e-06
3.016418e-06
3.3053847e-06
4.769687e-06
5.5710905e-06
6.1780488e-06
6.8105092e-06
3.1289983e-06
3.9993522e-06
3.5398467e-06
4.6273773e-06
4.2338851e-06
3.8653595e-06
5.1085056e-06
5.622123e-06
2.1373253e-06
3.9294526e-05
3.2506793e-05
1.6268611e-05
1.8476331e-05
2.4031427e-05
2.3629328e-05
2.6076188e-05
3.3549031e-05
2.171224e-05
3.1421513e-05
7.0537374e-06
7.7866462e-06
1.1611405e-05
1.0418034e-05
9.5092542e-06
8.5966153e-06
1.2763135e-05
1.4166479e-05
1.4609484e-05
1.306758e-05
1.9298318e-05
2.1481748e-05
1.054388e-05
1.172175e-05
1.7413417e-05
1.5628591e-05
8.2554978e-06
7.6015839e-06
6.3297567e-06
5.7106776e-06
7.5742828e-06
9.3473701e-06
4.7022697e-06
5.1997449e-06
7.8128534e-06
6.2851688e-06
0.019835704
0.034521248
0.047370997
0.00011732986
6.9286342e-05
0.00011082007
8.5774802e-05
9.1774934e-05
4.8996889e-05
6.4323165e-05
4.1804168e-05
2.9539982e-05
2.7547368e-07
1.6778363e-06
1.1489578e-05
1.1869909e-05
2.9639502e-07
5.9556526e-05
1.8375041e-07
6.650777e-07
0.00012381151
7.0051579e-07
3.7507483e-07
7.4515026e-05
4.2145984e-07
6.2815069e-07
0.00010434689
5.9265385e-07
5.4489315e-05
1.3289362e-07
1.5491771e-07
8.0011097e-05
4.8773562e-07
4.5515783e-07
9.7976843e-05
5.2220529e-07
5.5639446e-07
1.0562229e-05
8.1784889e-06
1.4327324e-05
1.527019e-05
1.3747403e-05
1.1730364e-05
1.254976e-05
1.6929443e-05
1.8336082e-05
2.1082721e-05
1.9688683e-05
2.2536422e-05
2.4028486e-05
0.00029188885
0.00029605436
3.9291714e-05
4.9314443e-05
5.2531108e-05
5.5195622e-05
3.1774622e-05
3.5867388e-05
2.2951009e-05
0.00035394619
0.00038173243
0.00026549831
0.00033657833
0.00020026399
0.00023284806
6.7601549e-05
0.00032930158
6.1819378e-05
0.0001657962
3.4410197e-05
0.00040704677
0.00039228813
0.00044666726
0.00024413441
2.1501419e-05
2.0453025e-05
4.8867399e-05
4.2972543e-05
4.1104865e-05
2.8898782e-05
3.651703e-05
2.117127e-05
2.7778808e-05
3.3847156e-05
2.8629902e-05
2.8768183e-05
4.2788505e-05
4.5851747e-05
5.6141409e-05
5.4558622e-05
7.367179e-05
6.4160527e-05
4.5254496e-05
3.6113748e-05
5.3288597e-05
9.6623869e-05
7.2370273e-05
8.01665e-05
8.6088876e-05
9.4214672e-05
9.0342655e-05
0.0039860796
0.0034232473
0.0017180929
0.010587058
1.4257342e-06
4.2661174e-05
1.3440861e-07
3.0456591e-05
7.6340333e-06
1.1525987e-05
1.4824318e-05
7.4132679e-05
7.1006409e-05
7.6339659e-05
7.7254309e-05
7.2773404e-05
8.1313074e-05
6.7832464e-05
0.03676351
4.3587066e-05
8.4937919e-05
8.4037026e-06
3.5630345e-05
5.6928785e-05
3.681501e-05
1.6920918e-05
1.8169285e-05
7.3725183e-08
7.0710242e-05
6.7196713e-08
7.61468e-05
1.5748993e-05
1.4642327e-05
7.7285327e-08
8.7877891e-05
7.2180811e-08
8.1875778e-05
2.181928e-05
1.9816369e-05
3.8798971e-07
0.0001030526
8.8331456e-07
0.0001033054
2.4478464e-05
2.8857234e-05
4.3449846e-07
9.3492557e-05
2.7335139e-07
9.88465e-05
1.2103976e-05
1.1508357e-05
1.756957e-07
6.5553123e-05
5.5471986e-08
6.0258896e-05
1.2802145e-05
1.359929e-05
2.417441e-07
4.9716225e-05
1.2658408e-07
5.5045612e-05
1.1884146e-05
1.1408188e-05
0.00028970105
0.00024484982
0.00034790061
0.0002988807
0.00037869318
0.00033310315
0.00040894988
0.00035862993
0.00036718741
0.00033143297
0.0003477784
0.00033207898
0.00041810459
0.00044927532
0.00043711509
0.00047683719
4.3588648e-05
5.5480383e-05
4.9139777e-05
6.0735516e-05
0.0004125908
0.00045469227
0.0004076595
0.00039671475
3.5245958e-05
2.89198e-05
6.1500588e-05
5.4111757e-05
5.7845153e-05
7.2783468e-05
9.9426307e-05
9.8649337e-05
6.7978243e-05
7.2849581e-05
8.6919681e-05
8.0496824e-05
0.00047530572
0.00048697431
0.00014202443
0.00013737349
0.0001554999
0.00012446911
0.00012512728
8.6653197e-05
0.00010471793
0.0001077347
6.224409e-05
8.1450181e-05
0.00014716917
0.00015424755
3.7248383e-05
3.471668e-05
3.0043495e-05
3.2325745e-05
4.0045076e-05
4.3382674e-05
5.4177325e-05
4.7821185e-05
3.704179e-05
3.1979162e-05
4.137271e-05
2.9302462e-05
2.2591237e-05
2.4080472e-05
2.7865816e-05
2.5870612e-05
2.1585325e-05
2.0701332e-05
9.5053362e-05
0.00010680127
9.893528e-05
0.00010246363
9.1227833e-05
9.3879266e-05
9.8165834e-05
8.7439929e-05
7.9992361e-05
8.9600359e-05
8.3694645e-05
8.5411177e-05
0.00046208633
0.00044764069
2.2012044e-05
8.779409e-05
8.4295313e-05
9.1318591e-05
9.487078e-05
7.743608e-05
8.0832998e-05
6.2782058e-05
6.7032691e-05
8.6651907e-05
9.0623686e-05
0.00013370366
0.00011992388
0.00010863414
0.00013356449
8.0233027e-05
0.00010284119
7.3038997e-05
0.00010559342
5.932343e-05
5.5446637e-05
8.1224958e-05
8.6463984e-05
4.7973668e-05
5.1669847e-05
7.5983621e-05
7.0000244e-05
3.4567675e-05
4.5447404e-05
3.7444817e-05
5.5477254e-05
4.3979309e-05
4.0417617e-05
5.2926992e-05
6.4119131e-05
9.8722965e-05
9.714534e-05
7.670193e-05
9.1203135e-05
9.478598e-05
0.00011393806
0.00010926686
0.00012337021
0.00012835566
9.9590773e-05
0.00010449194
0.00011795371
0.00011133045
0.00013187642
7.9520337e-05
8.4390777e-05
9.5763061e-05
8.570187e-05
9.647837e-05
9.3873896e-05
8.8750035e-05
8.9145426e-05
0.00010438331
0.00014502488
0.00015252413
0.00015459057
0.00014549224
0.00016040079
0.00015749348
0.00015977712
0.00016328431
0.00016449854
0.00016470176
0.0039770403
0.0082961806
0.009793859
0.018230119
0.013926246
0.013837823
0.023910565
1.3318985e-06
1.0766452e-05
7.122434e-06
2.8289359e-05
1.1050399e-05
1.3808627e-05
4.2781071e-05
3.8148584e-05
4.6828637e-05
6.4332105e-05
2.0505559e-05
2.6956777e-05
3.2880513e-05
7.1290661e-05
7.1764638e-05
5.6930549e-05
6.384252e-05
7.0323607e-05
6.8811015e-05
7.1810105e-05
1.2709787e-07
4.6106767e-05
1.1789869e-07
3.9569515e-05
1.1884454e-05
1.1231967e-05
5.1039629e-08
6.5723209e-05
6.2034361e-08
6.0876934e-05
1.2639899e-05
1.3630271e-05
1.627626e-07
5.1059353e-05
2.2425592e-07
5.5922795e-05
2.0937058e-05
1.9607897e-05
1.0415459e-07
0.00011438704
0.00010756572
9.7874426e-08
9.4353081e-05
9.1694812e-08
0.00010086513
1.7088574e-05
1.8322712e-05
7.4194254e-08
7.0861092e-05
6.8572326e-08
7.6298326e-05
1.5911429e-05
1.4738945e-05
7.9833054e-08
8.8064939e-05
8.5664779e-08
8.2036293e-05
0.00012125838
0.00012811019
1.059728e-05
1.0683632e-05
0.00024555741
0.0002996645
0.00029054407
4.0633543e-05
4.578396e-05
5.3838926e-05
5.0143337e-05
1.9251052e-05
4.5668279e-05
5.6021012e-05
4.9524293e-05
5.1590784e-05
3.4496758e-05
2.7266055e-05
7.6708085e-05
6.059274e-05
6.1360935e-05
5.6494795e-05
6.5753447e-05
6.1801141e-05
5.4336713e-05
5.8050319e-05
7.3051286e-05
6.8322293e-05
7.3219781e-05
8.7239203e-05
8.0795281e-05
3.8416864e-05
3.1696563e-05
4.1481206e-05
2.9687057e-05
2.2349373e-05
2.4024884e-05
2.7919734e-05
2.5881035e-05
7.4306388e-05
7.5802793e-05
6.3982423e-05
7.2161843e-05
6.93238e-05
6.6709939e-05
3.9787467e-05
4.2467009e-05
3.7195489e-05
3.4704956e-05
3.007406e-05
3.23278e-05
2.0958748e-05
2.0047537e-05
3.4484227e-05
4.5543427e-05
3.7510747e-05
5.5658079e-05
4.4079391e-05
4.0517979e-05
5.3094796e-05
6.4277726e-05
8.010485e-05
7.7089807e-05
9.1536255e-05
9.5127836e-05
8.2335836e-05
5.9430491e-05
5.5491936e-05
8.1443527e-05
4.8046626e-05
5.1713583e-05
7.6163064e-05
7.014536e-05
0.0014102129
0.0086509817
0.0050060688
0.012880477
0.054803264
0.050981977
2.8682907e-05
3.0231567e-05
2.7117312e-05
2.556568e-05
0.0023685219
0.0031457631
0.0063715852
0.044914285
0.075850568
0.074536621
0.022391357
0.01231793
0.015022949
0.03614115
9.8991304e-06
7.6339278e-06
2.7461813e-05
1.5648669e-06
1.3352958e-05
1.1074483e-05
4.5048139e-05
2.5908721e-05
8.7667704e-05
7.527122e-05
6.9183865e-05
8.2110546e-05
7.8344656e-05
4.9620039e-05
5.3300501e-05
5.7276493e-05
6.657249e-05
6.1174055e-05
5.639951e-05
7.0312348e-05
6.7850186e-05
6.4672067e-05
5.2237556e-05
7.004578e-05
8.5890009e-05
7.2191767e-05
4.1132037e-05
1.9735564e-05
1.9090112e-05
4.5296767e-05
3.6661144e-05
4.0197398e-05
3.159276e-05
2.6989434e-05
3.4135335e-05
6.3238645e-05
6.3775543e-05
7.3771233e-05
7.3013864e-05
7.4562214e-05
8.7904605e-05
7.4074288e-05
0.0030715972
0.0060507682
0.008710326
0.0019028417
0.039861012
0.00011093376
6.9393351e-05
0.00016013092
0.00011744244
0.0001566837
0.00015662034
5.0596735e-05
9.1885164e-05
8.5882194e-05
0.00013640002
0.00014221595
0.00014212233
0.00013630389
6.4454163e-05
4.5483406e-05
3.8803444e-05
1.7763488e-07
2.8388317e-07
3.6391608e-07
5.9785103e-05
3.1845508e-07
0.00015238303
8.5960831e-07
0.00010446047
5.9329987e-07
3.9530998e-07
7.4617118e-05
4.2511287e-07
6.6570887e-07
0.00012392163
7.0113285e-07
0.00015245277
8.6000855e-07
5.532406e-05
2.2993592e-07
2.3545054e-07
0.00014751177
8.0280983e-07
8.3215839e-07
0.00013016216
7.6994764e-07
7.3646613e-07
9.8089205e-05
5.2295273e-07
5.5706379e-07
8.0115351e-05
4.8868352e-07
4.5680924e-07
0.00013027289
7.7050787e-07
7.3707399e-07
0.00014760189
8.0334358e-07
8.3266255e-07
1.1250822e-05
1.0936232e-05
1.5838316e-05
1.4590474e-05
1.2078328e-05
1.3204424e-05
3.4608458e-05
3.5889023e-05
3.3216179e-05
3.1755274e-05
2.2564035e-05
2.4056065e-05
1.7115337e-05
1.8382318e-05
2.11106e-05
1.9718615e-05
2.8710085e-05
3.0258039e-05
3.3240195e-05
3.1780708e-05
3.706752e-05
3.4630695e-05
3.5910435e-05
0.00031221636
0.00029179078
0.00047594521
0.00056247405
0.00047553449
0.00042844414
5.61382e-05
3.1482034e-05
3.7128391e-05
2.4810627e-05
5.2597044e-05
3.9831337e-05
4.9382075e-05
6.6799355e-05
7.7400687e-05
8.0459538e-05
8.0407223e-05
6.6736207e-05
7.7344599e-05
6.3283855e-05
0.00059397308
0.00056567483
0.00021727616
0.00017217752
0.00014335076
6.6383692e-05
0.00020170589
0.00023336014
0.00029939495
0.00056211911
0.00039739397
0.00066185764
0.00070460877
0.00052120656
0.0003340305
0.00036722861
0.00033373224
0.00036695115
5.4931561e-05
4.6466505e-05
0.00064170962
0.00061673552
0.00066484815
0.00061635085
0.00060859293
0.00065936253
7.2888676e-05
7.8008085e-05
8.6428702e-05
7.68734e-05
9.2588666e-05
9.0989807e-05
0.00023510344
2.5156171e-05
0.0005652009
0.00057559991
2.0477493e-05
4.6242041e-05
3.0104863e-05
3.9151757e-05
3.4039398e-05
3.1013096e-05
7.0470622e-05
7.3826176e-05
4.3006068e-05
4.5983468e-05
7.0532164e-05
7.3885499e-05
8.6080882e-05
8.3538321e-05
5.9536565e-05
0.00015239838
0.00016128076
0.00017071662
0.00016599494
0.049714487
0.0025362178
0.0063132467
0.0057135475
0.021163008
0.00031496849
0.00034284396
0.00036834376
9.3861792e-05
0.00010862477
0.00010218189
7.7634598e-05
0.00051207355
0.00039876793
0.00036196209
0.00044134075
0.00038554845
0.00011429734
0.00048563712
0.00011910146
9.2454108e-05
7.9882236e-05
0.00040729814
0.00045645646
0.00046215378
0.0004589406
0.00055442225
0.00050020993
0.0005040659
0.0005653264
0.00051398425
0.00013423464
0.00014872763
8.5043912e-05
8.7156826e-05
8.0911781e-05
7.2721344e-05
8.1731625e-05
7.6374464e-05
8.7690591e-05
9.7845821e-05
9.1398409e-05
9.9796393e-05
0.00011604825
9.6329677e-05
6.5564871e-05
7.8441676e-05
7.5174152e-05
8.1682598e-05
8.5033253e-05
6.8839329e-05
7.1919496e-05
9.1911583e-05
8.8492512e-05
9.5488506e-05
8.6653316e-05
8.935982e-05
0.00010361783
9.0167997e-05
8.4674474e-05
9.6275471e-05
0.00014157345
0.00014497863
9.6041058e-05
0.00010693624
0.00012916756
0.0001201093
0.00013466603
)


1109
(
1.8073275e-05
1.2604773e-05
8.1481065e-06
1.1252916e-05
2.0520304e-05
2.8976296e-05
2.6435861e-05
8.0344183e-07
2.4998039e-06
4.9609139e-06
7.3558339e-06
5.4688195e-06
4.0077961e-08
1.5971439e-05
2.9680539e-08
1.4164571e-05
1.9110645e-08
9.0487522e-06
2.6599274e-08
1.0076412e-05
5.0777711e-08
2.3331908e-05
2.789805e-07
2.6445584e-05
1.2072074e-05
3.0606064e-06
1.4370972e-05
1.0345989e-07
3.7130621e-06
9.9154051e-07
1.3884893e-08
4.4290894e-06
1.6878955e-08
6.6558713e-06
2.0803285e-08
6.0327079e-06
5.1281456e-07
1.1211727e-06
2.1094062e-06
3.0269214e-06
1.8857942e-06
1.3697437e-06
8.3283379e-06
3.6173889e-06
1.0455755e-06
1.0553616e-06
1.2375943e-06
5.0985999e-08
1.2495911e-05
5.5277602e-08
1.4272237e-05
4.7417487e-08
1.0961398e-05
5.2590228e-08
9.6517187e-06
2.6829908e-08
4.8465268e-06
2.4126332e-08
5.3938491e-06
4.898846e-09
1.4552836e-06
6.0460041e-08
2.1645202e-06
1.9565685e-08
4.3667892e-06
2.1738192e-08
3.9442425e-06
3.1837543e-06
2.7120253e-06
5.74786e-08
1.7743352e-05
1.8886783e-07
1.6183874e-05
3.9192192e-06
5.1633457e-06
1.0773459e-05
1.6294857e-05
1.883363e-06
8.9399919e-06
1.3237591e-05
7.4529599e-06
3.6025869e-08
3.2998593e-08
2.1368685e-08
2.3846214e-08
6.8716862e-08
7.1838355e-08
2.1308719e-05
1.7329508e-05
2.0764542e-06
2.3606569e-06
4.2190066e-08
7.5700776e-06
3.7519928e-08
8.5321745e-06
1.8373596e-06
1.6324754e-06
1.1677184e-06
1.0504381e-06
2.9915294e-08
6.7399613e-06
3.3452367e-08
6.0202306e-06
1.3017641e-06
1.4554715e-06
7.2524477e-09
9.8271909e-07
1.7197213e-09
1.55851e-08
1.7243343e-08
5.766081e-07
5.786147e-07
3.4753517e-09
2.913814e-06
1.0055201e-08
2.5857291e-06
5.9650702e-07
6.43446e-07
8.5698178e-07
9.475039e-07
1.7374919e-08
3.2312311e-06
1.4582343e-08
3.5692415e-06
7.7656279e-07
7.0511205e-07
4.6719518e-07
2.981771e-07
2.3674267e-06
2.6664031e-06
1.6905272e-06
1.5197878e-06
6.1464155e-06
4.6270259e-06
6.5182079e-07
1.0041994e-06
1.0625905e-06
1.1233705e-06
8.9619356e-06
1.2524195e-05
8.0386174e-06
5.8271765e-06
1.3914594e-05
1.6795466e-06
3.6546095e-06
2.2269885e-06
4.057753e-06
2.1805689e-06
1.7271722e-06
3.6674557e-06
5.2863947e-06
3.8475069e-05
3.1023734e-05
2.505843e-05
5.1419047e-06
4.2753027e-06
2.4630307e-06
9.737351e-06
1.3749995e-05
2.9565639e-05
1.9813508e-05
2.219514e-05
4.7503753e-06
1.0757124e-05
1.8684431e-06
3.7458709e-06
4.9704358e-06
2.7814845e-06
3.1450116e-06
5.1818335e-06
5.5244426e-06
3.217531e-06
2.7424385e-06
4.4289131e-06
4.7681578e-06
1.0074169e-05
1.1298578e-05
1.5632504e-05
1.969189e-06
4.6731549e-06
2.841667e-06
3.8501386e-05
4.9857959e-05
4.7134882e-05
4.1151242e-05
2.9407977e-06
6.9731759e-06
8.3365867e-06
5.1113724e-06
5.6769831e-06
5.199856e-05
2.1459202e-05
4.1492068e-05
6.8919158e-05
6.1996711e-05
1.7116712e-05
5.552935e-05
3.3309795e-05
2.7762865e-05
6.5574372e-05
2.1514595e-05
2.7918241e-05
2.7324642e-05
5.9699022e-05
5.1590095e-05
3.4679795e-05
2.6690806e-05
3.3232718e-05
2.1247448e-06
1.8711375e-06
3.4640335e-06
3.3627529e-06
2.3583078e-06
2.5730464e-06
6.9901713e-05
6.7791959e-05
3.547555e-06
3.6140997e-06
4.7011574e-05
3.9657475e-05
2.4727172e-05
2.6865243e-05
3.1596835e-05
2.7101898e-05
2.4698404e-05
3.4276247e-05
2.8079922e-05
1.736784e-05
2.1492728e-05
2.369961e-05
5.4345886e-06
6.3510521e-06
9.7118065e-06
7.683493e-06
1.2526693e-05
1.8614931e-05
4.7424746e-06
4.1768646e-06
3.2875481e-06
3.6979774e-06
2.1179923e-06
2.3550662e-06
2.9326212e-06
2.6241821e-06
1.2948969e-06
1.5949491e-06
3.1041905e-06
3.2429952e-06
2.9461874e-06
2.7690704e-06
3.7455523e-05
2.8857806e-05
3.6200856e-05
3.0055599e-05
3.811872e-05
3.1077593e-05
3.0770887e-05
3.8270302e-05
3.6439822e-05
2.9328161e-05
3.0111078e-05
3.5310911e-05
3.7355261e-05
3.103256e-05
3.7989876e-05
3.0692103e-05
1.0061236e-06
1.0942847e-06
1.2843225e-06
1.1765138e-06
1.9077803e-06
1.7225812e-06
1.4137932e-06
1.5593413e-06
3.69091e-06
3.6635989e-06
8.8674265e-06
8.7419477e-06
9.4089291e-06
8.2615855e-06
9.5225741e-06
1.0909332e-05
1.0127817e-05
1.0232089e-05
1.2736197e-05
1.480759e-05
1.3692775e-05
1.3731016e-05
1.1831661e-05
1.1758327e-05
1.0999818e-05