/*--------------------------------*- C++ -*----------------------------------*\
  =========                 |
  \\      /  F ield         | OpenFOAM: The Open Source CFD Toolbox
   \\    /   O peration     | Website:  https://openfoam.org
    \\  /    A nd           | Version:  8
     \\/     M anipulation  |
\*---------------------------------------------------------------------------*/
/*   Windows 32 and 64 bit porting by blueCAPE: http://www.bluecape.com.pt   *\
|  Based on Windows porting (2.0.x v4) by Symscape: http://www.symscape.com   |
\*---------------------------------------------------------------------------*/
FoamFile
{
    version     2.0;
    format      ascii;
    class       scalarListList;
    location    "constant/vegetation";
    object      kcLAIboundary;
}
// * * * * * * * * * * * * * * * * * * * * * * * * * * * * * * * * * * * * * //


5
(

77
(
1.7375055
0.10210222
0.089986589
0.63775384
2.0339035
1.5714991
2.3390637
3.451656
0.18310033
2.788063
0.79437738
0.014437168
0.20026261
3.646606
0.0066380838
2.5672026
0.28746228
2.9619086
0.53355206
1.4357056
2.6099755
3.0212875
2.4584644
3.5144857
0.42025465
0.044024183
2.3083672
0.24312959
0.88601774
2.6403547
1.4879138
2.653352
1.8815638
0.43789752
0.6283933
0.53135373
1.4537069
3.0112024
2.9726682
3.4340534
0.22899053
1.1962395
3.07101
3.3076407
1.3117507
0.46169083
2.52864
3.1976009
0.93669397
2.6732901
3.3425764
0.84430023
2.8179552
0
0
1000
1000
1000
1000
0.20994602
1.601772
1.6095211
0.3432933
0.21647989
0.25321731
0.78218753
0.77132717
0.41610753
0.32713029
0.83022037
2.3689859
1.9732726
3.5234348
0.89331015
0.38871163
0.44286884
0.92495561
)


77
(
3.1738242
2.2722912
1.5874789
1000
1000
0.66782849
0.64302589
3.2008469
1000
2.6021864
0.51639326
0.13134725
1000
3.1576287
1000
2.0067793
1.8284042
2.875643
0.42209144
0.74941124
1.7976057
1000
1.2756296
2.4760627
0.2130808
0.40528592
0.8153135
0.50570987
0.6394702
1.3379323
2.8783997
2.9689376
2.0144126
1.0681045
0.66117639
0.19110206
1.5964268
2.65481
1.9354122
3.0183118
0.24220318
1000
3.2072572
3.366031
1.9516293
1000
1.8913151
2.1509566
0.94815816
1000
2.5050402
0.44071949
3.2925864
0
0
1000
1000
1000
1000
0.17245167
1.0674099
1.0085593
0.32836354
0.25043861
0.19229452
0.73543258
1.263194
0.50425002
0.34417653
0.40360741
1.2513838
2.5592609
3.0540146
1.2605238
0.54862198
0.31161
0.62335736
)


77
(
3.1305766
3.1702928
2.6580353
1000
1000
1.119725
2.3474413
1000
1000
1000
1000
0.36067357
1000
1000
1000
1.3315276
1.9759565
1000
1.9196696
1000
1000
1000
1000
1000
0.57747488
1.5233974
1.8537256
2.8916241
2.7492584
1.9647636
2.9153751
1000
1000
1000
1000
1000
1000
1000
1000
1000
1000
1000
1000
1000
1000
1000
1000
1.8116523
1000
1000
1000
1.8358064
1000
0
0
1000
1000
1000
1000
0.17894511
1000
1000
1000
0.21838656
0.20464541
0.65558919
1.9058675
0.61791676
0.31035931
0.71312356
1.3592114
2.6142772
1000
1.3523894
0.67986814
0.26735857
0.4926025
)


77
(
1000
1000
1000
1000
1000
1000
1000
1000
1000
1000
1000
1000
1000
1000
1000
3.2589625
1000
1000
1000
1000
1000
1000
1000
1000
1000
1000
1000
1000
1000
1000
1000
1000
1000
1000
1000
1000
1000
1000
1000
1000
1000
1000
1000
1000
1000
1000
1000
3.3950994
1000
1000
1000
1000
1000
0
0
1000
1000
1000
1000
0.19748374
1000
1000
1000
0.21232607
0.35538851
1000
2.1095039
0.70096154
0.32222777
2.267937
3.072603
1000
1000
1000
1000
0.39769386
0.61363389
)


77
(
1000
1000
1000
1000
1000
1000
1000
1000
1000
1000
1000
1000
1000
1000
1000
1000
1000
1000
1000
1000
1000
1000
1000
1000
1000
1000
1000
1000
1000
1000
1000
1000
1000
1000
1000
1000
1000
1000
1000
1000
1000
1000
1000
1000
1000
1000
1000
1000
1000
1000
1000
1000
1000
0
0
1000
1000
1000
1000
1000
1000
1000
1000
0.21420559
1000
1000
1000
0.79543327
0.34728902
1000
1000
1000
1000
1000
1000
1.3763964
0.98918191
)

)


// ************************************************************************* //
