/*--------------------------------*- C++ -*----------------------------------*\
  =========                 |
  \\      /  F ield         | OpenFOAM: The Open Source CFD Toolbox
   \\    /   O peration     | Website:  https://openfoam.org
    \\  /    A nd           | Version:  8
     \\/     M anipulation  |
\*---------------------------------------------------------------------------*/
/*   Windows 32 and 64 bit porting by blueCAPE: http://www.bluecape.com.pt   *\
|  Based on Windows porting (2.0.x v4) by Symscape: http://www.symscape.com   |
\*---------------------------------------------------------------------------*/
FoamFile
{
    version     2.0;
    format      ascii;
    class       scalarListList;
    location    "constant/vegetation";
    object      skyViewCoeff;
}
// * * * * * * * * * * * * * * * * * * * * * * * * * * * * * * * * * * * * * //


5
(

77
(
188
188
188
188
188
188
188
188
188
188
188
188
188
188
188
188
188
188
188
188
188
188
188
188
188
188
188
188
188
188
188
188
188
188
188
188
188
188
188
188
188
188
188
188
188
188
188
188
188
188
188
188
188
0
0
94
94
94
94
143.90179
104.33277
138.52491
94.702202
145.45987
124.48642
99.583494
98.774429
126.37824
154.31372
106.52751
137.43931
108.72969
149.16633
111.36477
99.443345
103.6841
98.866223
)


77
(
227
227
227
227
227
227
227
227
227
227
227
227
227
227
227
227
227
227
227
227
227
227
227
227
227
227
227
227
227
227
227
227
227
227
227
227
227
227
227
227
227
227
227
227
227
227
227
227
227
227
227
227
227
0
0
113.5
113.5
113.5
113.5
173.75376
125.97627
167.26146
114.34787
175.63506
150.31073
120.24177
119.26487
152.59501
186.32561
128.62631
165.95066
131.28532
180.11041
134.46703
120.07255
125.19303
119.37571
)


77
(
192
192
192
192
192
192
192
192
192
192
192
192
192
192
192
192
192
192
192
192
192
192
192
192
192
192
192
192
192
192
192
192
192
192
192
192
192
192
192
192
192
192
192
192
192
192
192
192
192
192
192
192
192
0
0
96
96
96
96
146.96353
106.55262
141.47225
96.717143
148.55476
127.13506
101.70229
100.87601
129.06714
157.59699
108.79406
140.36355
111.04309
152.34008
113.73423
101.55916
105.89014
100.96976
)


77
(
149
149
149
149
149
149
149
149
149
149
149
149
149
149
149
149
149
149
149
149
149
149
149
149
149
149
149
149
149
149
149
149
149
149
149
149
149
149
149
149
149
149
149
149
149
149
149
149
149
149
149
149
149
0
0
74.5
74.5
74.5
74.5
114.04982
82.68927
109.78836
75.056532
115.28469
98.662106
78.925216
78.283989
100.16148
122.30183
84.42872
108.92796
86.174062
118.22225
88.262502
78.81414
82.175164
78.356741
)


77
(
107
107
107
107
107
107
107
107
107
107
107
107
107
107
107
107
107
107
107
107
107
107
107
107
107
107
107
107
107
107
107
107
107
107
107
107
107
107
107
107
107
107
107
107
107
107
107
107
107
107
107
107
107
0
0
53.5
53.5
53.5
53.5
81.90155
59.380885
78.841303
53.899658
82.788332
70.851311
56.67784
56.217361
71.928043
87.82749
60.630021
78.223438
61.883387
84.897858
63.383139
56.598074
59.011695
56.269606
)

)


// ************************************************************************* //
