/*--------------------------------*- C++ -*----------------------------------*\
  =========                 |
  \\      /  F ield         | OpenFOAM: The Open Source CFD Toolbox
   \\    /   O peration     | Website:  https://openfoam.org
    \\  /    A nd           | Version:  8
     \\/     M anipulation  |
\*---------------------------------------------------------------------------*/
/*   Windows 32 and 64 bit porting by blueCAPE: http://www.bluecape.com.pt   *\
|  Based on Windows porting (2.0.x v4) by Symscape: http://www.symscape.com   |
\*---------------------------------------------------------------------------*/
FoamFile
{
    version     2.0;
    format      ascii;
    class       scalarListList;
    location    "constant/vegetation";
    object      solarLoadFineFaces;
}
// * * * * * * * * * * * * * * * * * * * * * * * * * * * * * * * * * * * * * //


5
(

1120
(
717.08284
717.08284
717.08284
717.08284
378.9626
93.81154
717.08284
717.08284
717.08284
148.96215
69.139602
22.726585
717.08284
44.129495
717.08284
717.08284
717.08284
717.08284
44.129495
18.701157
324.02283
717.08284
18.701157
44.129495
44.129495
717.08284
717.08284
717.08284
55.036069
717.08284
717.08284
324.02283
37.087603
420.58193
717.08284
717.08284
717.08284
717.08284
717.08284
52.731651
34.94949
61.358086
93.81154
21.342613
717.08284
717.08284
71.294855
717.08284
717.08284
717.08284
717.08284
51.153794
22.726585
161.94837
50.493235
161.94837
22.726585
717.08284
717.08284
717.08284
717.08284
717.08284
52.731651
717.08284
717.08284
35.303742
36.690695
36.690695
21.342613
23.130173
51.153794
51.153794
126.17702
161.94837
717.08284
717.08284
717.08284
216.79493
717.08284
717.08284
717.08284
22.726585
33.25421
26.246973
717.08284
161.94837
109.24877
193.1449
717.08284
717.08284
717.08284
717.08284
717.08284
717.08284
57.199855
57.199855
109.24877
18.701157
18.701157
18.701157
29.300087
55.036069
55.036069
50.493235
50.493235
37.087603
717.08284
717.08284
170.628
717.08284
717.08284
216.79493
52.731651
21.342613
34.94949
34.94949
21.342613
717.08284
71.294855
71.294855
71.294855
33.25421
33.25421
22.726585
33.25421
52.731651
57.199855
717.08284
57.199855
170.628
167.58396
167.58396
717.08284
21.342613
18.701157
18.701157
23.130173
21.342613
23.130173
23.130173
29.300087
29.300087
29.300087
29.300087
29.300087
55.036069
55.036069
29.300087
717.08284
537.93035
126.17702
717.08284
717.08284
717.08284
49.496466
49.496466
93.81154
49.496466
717.08284
717.08284
717.08284
717.08284
148.96215
717.08284
717.08284
69.139602
69.139602
69.139602
717.08284
717.08284
717.08284
35.303742
35.303742
25.345849
421.50753
61.358086
35.303742
717.08284
61.358086
717.08284
37.087603
50.493235
717.08284
26.246973
37.087603
37.087603
717.08284
717.08284
717.08284
61.358086
49.496466
34.94949
717.08284
717.08284
717.08284
717.08284
717.08284
717.08284
717.08284
717.08284
717.08284
717.08284
717.08284
717.08284
51.153794
295.6492
71.294855
42.829888
42.829888
42.829888
26.246973
26.246973
42.829888
42.829888
717.08284
717.08284
109.24877
717.08284
717.08284
717.08284
717.08284
717.08284
717.08284
717.08284
717.08284
717.08284
36.690695
25.345849
61.358086
25.345849
25.345849
36.690695
161.94837
161.94837
717.08284
717.08284
717.08284
717.08284
717.08284
717.08284
717.08284
717.08284
717.08284
717.08284
717.08284
0
0
0
0
174.39986
0
0
0
0
0
0
140.36018
165.70133
302.23235
141.17696
291.57886
458.13133
0
0
0
116.0771
191.63413
456.34731
66.493687
0
0
0
0
0
0
0
0
0
139.70454
288.9021
128.0003
0
0
0
0
0
0
0
0
26.700495
0
0
0
0
0
0
0
172.8541
169.39347
23.800643
0
0
0
0
0
120.0726
279.42673
0
456.74522
396.78694
290.25001
499.00896
649.86007
493.65141
619.56949
0
11.921233
0
447.54105
117.842
48.39171
0
209.49424
118.07153
119.55605
189.96303
117.84926
0
0
98.585006
303.73806
244.93887
702.51936
712.07877
610.94352
496.83132
748.98347
680.81054
648.9246
751.9827
194.67251
225.80294
145.8335
70.196077
127.06657
142.3248
0
312.33667
333.34125
0
145.56508
133.88536
153.58792
132.47273
0
18.343681
134.52666
132.47575
0
0
0
0
414.35646
597.13658
572.96384
274.80299
0
451.51778
400.65284
424.8789
432.42065
0
66.410188
0
0
60.622072
68.613931
102.6033
104.64453
252.2086
0
0
0
0
0
0
0
66.080377
0
60.735551
116.09309
57.036144
0
0
0
0
460.80259
575.42643
580.90467
664.74893
591.32056
508.14945
431.85205
0
0
0
40.624489
0
0
27.131749
0
0
0
0
0
0
0
0
0
0
0
0
0
0
0
0
0
0
0
0
0
0
0
0
0
0
0
0
0
0
0
0
0
0
0
445.21469
450.12136
416.54744
447.60506
479.2614
174.78263
177.3086
161.62702
165.90052
165.50155
154.36149
157.561
170.51275
141.21811
278.81757
272.33334
278.80811
255.93793
274.02616
279.69972
421.01719
407.5646
435.68668
8.4787004
83.311602
0
0
0
0
0
0
0
0
0
0
0
0
0
0
0
0
0
0
0
0
0
0
47.993981
0
0
0
0
0
0
0
0
0
0
0
0
0
15.048648
0
0
0
0
0
0
0
0
0
0
0
182.30024
183.0474
99.879312
233.59761
38.680103
269.25109
367.61874
101.99826
101.97666
0
0
21.491341
169.47838
36.145202
178.86141
377.84653
0
50.207978
25.012837
0
0
14.888534
0
26.466627
157.57099
142.45911
39.393361
0
0
0
0
0
0
0
0
0
0
156.90624
204.22412
182.08394
182.05836
170.43869
170.36348
173.05238
57.930696
9.6558715
75.999798
0
107.94215
14.061611
0
0
28.493115
0
0
0
0
369.55993
346.21965
527.57138
529.70393
654.52635
695.83678
485.88642
613.63577
423.67861
454.70649
402.1858
646.94563
690.39266
698.34995
449.32174
479.04283
117.83784
175.28294
192.44512
40.615443
64.425888
9.6575418
26.969393
186.95507
199.44317
198.62228
265.40529
68.838075
174.86094
263.93991
333.33386
187.13385
326.93734
117.83851
67.439826
9.9702023
0
0
0
0
0
0
276.0276
111.56049
244.93175
427.97681
419.61544
679.59442
584.47223
694.55119
710.03383
566.82685
639.86569
529.22057
628.91496
669.22325
730.83796
732.64102
749.85749
580.43778
480.73759
540.93267
465.27754
658.94947
687.86389
709.20864
589.43254
0.3673401
218.40657
0
182.99851
41.784045
11.670816
0
0
44.604173
206.76855
218.152
0
301.99061
0
0
0
0
98.816222
0
0
101.13481
0
0
116.61776
550.07446
518.11584
653.77872
622.78201
538.0229
0
0
0
0
0
0
0
0
0
584.09444
431.81194
320.68885
433.01149
581.12425
444.97054
0
0
0
0
87.241623
0
409.79184
101.9768
149.98713
0
0
0
0
0
0
0
0
0
27.065152
209.96202
277.0713
0
0
0
29.370598
526.72263
519.28197
526.82374
584.48503
0
294.32764
660.28056
681.10267
421.01816
294.37915
254.08971
209.25972
240.99664
0
0
0
0
119.8565
110.90601
0
0
0
0
0
0
0
0
0
0
0
0
54.64255
4.4423966
0
0
0
209.82044
0
0
0
220.51017
129.74923
197.20219
129.74417
422.42592
360.06811
342.52027
485.95615
375.47609
0
0
0
108.22638
412.55961
558.72267
388.67681
569.46774
693.18563
313.96201
426.31634
343.3749
534.72707
0
252.70573
0
0
0
249.09601
571.87055
453.26357
447.53521
587.8389
99.526788
123.12991
0
95.022872
27.09383
0
0
0
432.57381
267.46147
345.8358
594.43877
0
400.22302
427.50092
420.59445
447.80091
439.55862
0
0
0
0
0
0
0
0
0
0
0
0
0
0
0
0
0
0
0
0
0
0
0
0
0
0
0
0
0
0
0
0
0
0
265.34771
247.26096
156.56012
286.87861
313.99016
435.05277
308.36017
311.27075
450.45016
174.4328
157.83791
161.00538
304.66839
305.87452
298.94162
305.05148
307.52301
302.93475
286.46545
306.84882
288.11149
303.9134
303.91374
288.14426
87.237823
99.597299
233.58334
417.59498
303.90184
436.62865
444.97874
289.70213
392.58478
421.0198
402.21404
237.41003
430.71374
570.72453
0
2.0438222
2.0469703
2.3233234
0
0
0
0
0
0
0
0
0
0
0
0
0
0
0
0
0
0
87.253745
0
0
0
0
0
0
0
0
0
0
0
0
0
9.8811563
28.402237
200.78127
28.404842
0.58918354
0
0
0
0
0
87.228204
233.58457
51.839232
233.58274
303.67505
275.7213
252.21421
343.83291
319.67351
348.17268
352.86137
285.91819
0
101.97188
235.16725
377.84014
0
0
157.6572
0
166.28326
28.784675
152.47814
0
0
0
0
0
0
0
0
0
0
0
0
0
0
0
0
0
0
13.140179
109.99727
116.08121
28.479355
60.739528
21.436392
227.33061
0
14.047164
0
0
0
0
28.494239
28.448109
341.99356
0
0
0
0
244.86674
353.49665
244.87714
280.51531
427.44325
425.40481
410.13576
343.12473
294.84004
482.90648
536.34331
652.61792
216.28689
383.9361
418.78904
428.53736
442.76884
395.01291
428.41952
566.01453
556.37711
604.25502
670.06243
649.98081
573.82895
447.87026
567.73283
588.78791
421.21142
53.279457
30.92477
186.96134
196.68035
279.8203
422.01985
196.56546
352.79092
267.34382
159.42396
197.18771
30.66968
0
53.270773
323.28134
287.27705
268.17873
331.08698
344.66877
297.86139
74.781208
0
0
0
26.725172
44.351558
0
26.93127
44.356357
0
0
0
0
0
102.93612
153.60656
158.57274
249.11458
286.09465
292.65931
242.29294
248.55485
388.09215
387.4
247.24057
284.38375
0
709.92002
674.18212
652.55073
733.59636
697.72932
747.74283
724.45613
483.65329
462.43938
402.26599
216.29129
349.38192
241.1332
509.35456
535.95307
477.10486
721.15006
653.51915
659.75832
589.92779
627.44432
733.06203
627.90925
113.06752
0
0
340.41482
0
0
0
0
0
0
0
0
195.09742
192.941
473.74131
577.88955
457.30471
98.602854
98.598921
0
505.43459
0
0
0
0
0
194.9875
203.24385
502.70879
0
0
0
365.47202
476.7459
427.49715
478.91934
469.08589
516.99142
0
0
434.64389
)


1120
(
24.510183
60.37781
119.75332
24.510183
0
0
0
0
585.76158
585.76158
585.76158
23.85672
0
43.41159
585.76158
585.76158
0
585.76158
43.41159
24.910369
585.76158
0
24.910369
43.41159
43.41159
0
0
0
585.76158
585.76158
94.114173
349.5056
33.025165
585.76158
585.76158
0
0
0
585.76158
97.057846
0
163.57691
0
49.247084
585.76158
585.76158
585.76158
585.76158
585.76158
585.76158
585.76158
585.76158
23.85672
32.93425
30.083452
32.93425
23.85672
585.76158
585.76158
585.76158
585.76158
585.76158
97.057846
585.76158
585.76158
41.186184
84.563324
84.563324
49.247084
28.634178
153.6966
153.6966
24.510183
32.93425
32.93425
585.76158
585.76158
0
585.76158
585.76158
60.37781
23.85672
23.704281
20.224239
32.93425
32.93425
78.139856
83.203012
585.76158
585.76158
585.76158
0
585.76158
0
88.375762
88.375762
78.139856
24.910369
24.910369
24.910369
68.166705
78.738604
78.738604
30.083452
30.083452
33.025165
585.76158
585.76158
585.76158
0
0
0
97.057846
49.247084
0
0
49.247084
585.76158
585.76158
585.76158
585.76158
23.704281
23.704281
23.85672
23.704281
97.057846
88.375762
585.76158
88.375762
276.85713
118.68656
118.68656
585.76158
49.247084
24.910369
24.910369
28.634178
49.247084
28.634178
28.634178
68.166705
68.166705
68.166705
68.166705
68.166705
78.738604
78.738604
68.166705
94.114173
94.114173
24.510183
60.37781
585.76158
309.03133
0
0
0
0
0
0
0
585.76158
585.76158
585.76158
585.76158
585.76158
585.76158
585.76158
585.76158
585.76158
585.76158
41.186184
41.186184
47.840504
585.76158
585.76158
41.186184
0
163.57691
0
33.025165
30.083452
459.76233
20.224239
33.025165
33.025165
0
0
0
163.57691
0
0
585.76158
585.76158
585.76158
585.76158
585.76158
585.76158
585.76158
585.76158
585.76158
585.76158
585.76158
585.76158
585.76158
585.76158
585.76158
21.765507
21.765507
21.765507
20.224239
20.224239
21.765507
21.765507
585.76158
83.203012
78.139856
201.30242
201.30242
585.76158
585.76158
585.76158
585.76158
585.76158
585.76158
585.76158
84.563324
47.840504
163.57691
47.840504
47.840504
84.563324
32.93425
32.93425
585.76158
585.76158
585.76158
0
0
585.76158
119.75332
585.76158
119.75332
585.76158
585.76158
0
0
0
0
252.82176
0
0
0
0
0
0
217.93808
249.80223
346.84563
213.12065
340.99897
468.6792
0
0
0
33.413223
111.10454
290.52398
208.79502
137.65421
0
137.65515
0
0
0
0
0
0
217.45077
339.36742
190.65017
0
0
0
0
0
0
0
0
0
0
0
0
0
0
0
0
17.709846
14.73561
0
0
0
0
0
0
31.405041
85.174826
0
288.82009
195.08241
104.26802
313.96804
553.88025
334.39673
448.25073
0
0
0
437.88587
257.19417
193.37183
137.64562
324.99507
257.36238
258.59478
309.71549
257.20033
137.65826
0
218.76441
348.31724
338.31691
565.56784
604.36541
415.92572
312.6789
606.83013
587.54936
556.95441
629.19707
300.11261
318.76617
241.95153
134.86456
216.68842
207.60875
0
356.07884
383.80555
0
82.141195
69.076548
78.687241
71.489186
0
0
71.796392
71.491538
0
0
0
0
459.11677
555.68725
566.20031
305.33522
0
471.0111
450.73053
445.58385
449.57794
0
130.78298
0
30.988909
125.80685
133.06127
37.610232
36.557762
63.944404
0
0
0
0
0
0
0
0
0
0
0
0
0
0
0
0
428.04313
552.90069
542.9197
578.38545
517.53223
350.36291
358.80474
4.9118568
0.29362059
22.034108
190.46719
99.974098
26.838189
181.42941
0
33.053742
0
0
27.236003
0
33.695766
98.765944
0
0
0
0
0
0
0
0
0
0
0
0
0
0
0
0
0
0
0
0
0
0
0
0
0
0
95.848168
422.79577
423.85632
420.93838
425.5275
446.80611
203.17503
188.3898
144.42301
147.93897
180.42729
103.19722
142.38061
152.94935
92.58507
191.03326
182.23428
191.02506
162.42114
186.00793
191.93206
308.85544
294.15086
334.0803
49.285739
106.44347
0
0
0
0
0
0
0
0
0
0
0
0
0
0
0
0
0
0
0
0
0
0
0
0
0
0
0
0
0
0
0
0
52.125225
0
0
0
51.653394
0
0
0
0
0
0
0
0
0
0
0
32.408561
33.342981
0
107.28679
0
77.354517
194.86716
37.848231
37.859846
0
0
101.09644
14.764256
54.51206
29.362652
228.91154
83.046652
124.71365
78.124184
58.006299
40.080134
73.791315
0
0
142.38923
93.468541
44.287275
0
0
0
0
0
0
0
0
0
0
0
16.179472
2.9529403
0
0
8.9015089
0
32.599925
0
42.641733
0
25.809181
0
0
0
0
0
0
0
0
168.02334
146.19364
330.38629
333.00275
504.1045
534.24827
426.70908
473.03009
287.46777
399.5519
351.90484
471.27299
548.39257
580.11212
437.38946
450.76775
257.191
302.40197
315.5943
190.45912
207.76834
148.88573
181.21591
309.99975
317.78461
309.90764
370.73372
211.99463
302.17596
369.3701
422.43382
310.1581
417.01262
257.19187
210.40774
148.52157
97.931278
0
0
0
0
0
334.12585
229.64418
338.31126
450.46357
446.88264
516.61554
522.88656
607.98862
627.16959
366.80569
452.34082
332.65432
462.72722
496.9179
571.65652
630.57505
633.5497
543.43712
428.36058
530.60191
411.23482
627.26407
636.58229
636.16106
577.8064
44.818721
83.60215
0
94.021645
31.181505
29.051148
0
0
0.99419904
94.816837
128.34821
10.119968
331.44005
0
0
93.758684
34.99111
129.52486
0
0
0
0
0
164.44888
559.88102
544.93405
535.38975
485.72201
444.1541
0
0
0
0
0
0
0
0
94.466181
497.74216
367.9167
347.72038
288.95067
487.76648
376.53686
0
0
0
0
0
0
261.86943
37.8598
208.22643
23.198983
9.415197
0
0
0
0
0
0
0
0
20.676421
94.488074
0
0
0
0
366.41003
349.64078
362.42681
488.98698
0
338.29959
539.61777
606.29534
454.62599
333.96354
276.05099
215.17044
249.23087
57.909749
46.440522
65.520223
0
165.59521
222.64351
0
0
0
0
0
0
0
0
0
0
0
0
25.16162
0
0
0
0
82.224086
0
0
0
319.59535
235.96321
303.16411
222.59966
474.09373
436.15655
429.38286
529.64452
448.65996
48.574142
10.119023
0
226.40553
453.11375
549.53564
449.4586
554.32695
630.1988
362.4289
427.07354
396.31103
553.43658
14.79915
277.07345
27.565598
0
0
336.49139
551.91381
421.20289
421.33007
530.12107
189.25466
215.3302
5.7190887
149.63291
57.622863
0
0
0
426.87964
294.82942
333.73337
544.42371
0
458.95656
484.99933
287.28832
340.2632
339.39328
54.159562
100.65967
50.920619
55.326051
4.4931265
83.063556
104.17085
84.456029
0
68.007412
58.633156
43.392864
69.199419
0
0
47.780555
42.719713
10.960798
0
0
0
0
0
0
0
0
0
0
0
0
0
0
0
0
348.66126
334.05168
232.37411
338.19255
306.94906
369.61001
264.16852
310.83571
385.05186
210.45131
231.89079
191.10974
308.9444
293.3296
256.45671
294.04819
263.67081
316.16283
336.8408
309.86546
212.43415
261.93393
261.93338
212.41674
0
1.3359808
107.27204
322.19015
261.92513
368.67622
376.54287
213.20782
263.10064
308.85669
277.28489
110.57495
330.03844
446.00654
0
0
35.160128
0
0
0
0
0
0
0
0
0
0
0
0
0
0
0
0
0
0
0
0
0
0
0
0
0
0
0
0
7.0068586
76.661617
0
0
0
7.8606151
58.260928
193.98785
58.261866
2.649242
0
0
0
0
0
0
107.27386
0
107.27744
130.55018
92.203632
63.94911
162.5272
144.51524
187.59551
196.22031
106.36467
0
37.86226
108.86889
228.90594
56.877666
56.042763
187.37166
10.007793
186.87395
37.076953
136.96173
9.4258744
0
0
0
0
0
0
0
0
0
0
0
0
0
0
0
0
0
0
0
0
0
0
0
80.133577
0
0
0
0
0
0
0
0
143.34217
0
0
0
0
83.388011
189.60415
83.394759
104.25545
253.72155
271.88751
208.52724
144.49232
108.17922
295.82397
438.9988
529.53508
207.66636
298.89695
294.89438
324.81766
328.41363
321.73176
350.16324
427.71557
423.62801
434.34818
512.90752
469.80618
449.64345
465.60162
545.85285
537.2145
437.6358
201.0733
183.79703
310.00431
303.55245
381.24587
477.81638
302.8652
414.86272
372.01405
257.37635
303.15248
168.58163
106.23311
191.87402
415.98449
386.95088
372.7272
420.65395
431.66019
396.85354
216.02287
69.385461
65.520327
78.812695
165.79205
185.06093
101.03601
167.89649
185.06317
0
0
0
0
0
221.98319
231.31177
239.02012
341.30096
339.3573
345.93472
335.81471
340.88304
448.91392
448.5804
340.6849
340.97304
0
595.42074
494.11627
504.29018
596.05758
535.33434
607.24428
564.85695
461.34367
434.21286
354.57671
207.66854
342.18908
256.80697
497.45438
535.19449
490.28444
634.33724
626.82262
629.43367
581.55063
611.09859
647.91697
611.20336
209.81297
68.257117
68.326643
201.42873
0
0
0
0
0
64.591913
65.610249
77.483601
147.83127
143.16095
283.91182
386.04642
262.62922
218.782
218.77853
106.23544
542.082
4.4633146
21.48544
0
0
0
161.48132
166.74093
322.72181
86.420417
77.284908
82.34194
424.11943
523.51176
484.99708
520.21149
518.41263
548.54048
100.66727
0
235.11321
)


1120
(
23.428849
22.51658
37.581406
23.428849
0
0
0
0
22.51658
536.2201
51.269878
0
0
0
0
536.2201
0
0
0
0
0
0
0
0
0
0
0
0
536.2201
536.2201
74.335469
0
0
78.639578
74.335469
0
0
0
0
0
0
0
0
0
536.2201
116.87995
84.000194
29.752722
300.98783
34.304835
29.752722
75.172172
0
29.054391
0
29.054391
0
0
0
0
0
0
0
0
0
0
0
0
0
0
536.2201
536.2201
23.428849
29.054391
29.054391
0
373.85617
0
116.87995
116.87995
22.51658
0
0
0
29.054391
29.054391
0
0
0
0
0
0
0
0
0
0
0
0
0
0
87.609761
141.60155
536.2201
0
0
0
78.639578
78.639578
0
0
0
0
0
0
0
0
0
536.2201
84.000194
84.000194
536.2201
0
0
0
0
0
0
0
0
0
0
0
0
0
0
0
0
0
0
0
87.609761
87.609761
87.609761
87.609761
87.609761
536.2201
141.60155
87.609761
74.335469
74.335469
23.428849
22.51658
29.752722
34.304835
0
0
0
0
0
0
0
536.2201
536.2201
536.2201
536.2201
51.269878
51.269878
51.269878
536.2201
536.2201
536.2201
0
0
0
0
0
0
0
0
0
0
0
0
0
0
0
0
0
0
0
0
0
536.2201
536.2201
536.2201
85.518978
85.518978
29.752722
536.2201
85.518978
85.518978
29.752722
34.304835
29.752722
75.172172
34.304835
84.000194
0
0
0
0
0
0
0
0
0
0
0
0
0
0
0
0
0
0
0
0
0
0
0
0
0
29.054391
29.054391
0
0
0
0
0
0
37.581406
37.581406
37.581406
536.2201
78.639578
0
0
0
0
358.35056
0
0
0
0
0
0
0
359.77244
432.46688
309.54328
0
521.23303
0
0
0
0
63.043924
181.8591
353.60183
300.34009
0
300.34085
0
0
0
0
0
0
0
0
0
0
0
0
0
0
0
0
0
0
0
0
0
0
0
0
0
0
0
0
0
0
0
0
0
0
0
0
177.94482
35.902293
0
188.73336
534.71873
236.49131
349.39371
0
0
0
467.85458
409.76968
338.74908
300.33196
459.2713
409.91217
411.02451
446.06938
409.77529
300.34383
0
342.40557
416.66121
451.8477
500.91155
569.98686
287.02702
188.21421
545.61675
573.33577
541.65648
587.07256
360.84383
441.82163
361.10964
217.52586
328.22163
297.88174
0
441.77625
477.48907
0
23.056772
7.3875855
0
13.372927
0
0
12.199276
13.374954
0
0
0
0
542.58683
572.64708
616.75047
375.22007
0
532.21271
0
0
505.68111
0
212.78625
63.246217
73.942557
208.00835
215.35469
0
0
80.823634
0
0
0
0
0
0
0
0
0
0
0
0
0
0
0
0
454.32964
586.72709
561.2138
558.58664
500.44137
255.44605
342.84576
170.91291
165.10275
180.49708
340.73846
251.88712
192.88677
335.39251
0
114.90319
163.82062
99.171815
122.34534
85.739679
199.60629
261.57009
63.911332
44.62478
40.557561
50.243564
0
0
28.7193
10.836469
0
0
0
0
0
0
0
0
0
0
0
0
0
0
0
0
0
0
0
439.30269
437.03784
461.52774
442.68641
457.33266
0
0
0
0
0
57.05588
0
141.8701
47.495622
122.80618
111.04237
122.79815
86.117125
117.0229
123.81896
233.02368
215.56476
270.21176
0
0
0
0
0
0
0
0
0
0
0
0
0
0
0
0
0
0
0
0
0
0
0
0
0
0
0
0
0
0
0
0
0
92.879008
0
0
1.4280367
0
101.62809
0
0
0
0
0
0
0
0
0
0
0
0
0
0
0
0
70.797698
56.214197
0
0
0
0
0
0
0
0
113.19525
0
0
0
0
0
0
0
0
0
0
0
0
0
0
0
0
0
0
0
0
0
0
0
0
0
0
0
0
0
0
0
0
0
0
0
0
0
0
0
0
0
8.3610899
0
193.91711
197.32963
430.33355
451.7863
429.54624
405.91404
206.5962
403.4534
355.62906
369.92941
477.12696
533.14522
465.22739
465.55586
409.76693
446.07021
457.04901
340.73021
353.54583
310.93684
335.07942
450.16127
453.96354
446.50526
506.05752
365.18029
446.05548
504.74453
545.53543
450.32605
539.99364
409.76785
363.36881
310.58323
260.37327
0
0
0
0
0
413.27594
352.6624
451.8427
511.64373
512.04214
424.13033
517.29548
592.43442
618.01582
229.6192
332.96519
197.1004
370.18602
400.95727
491.25203
610.67785
600.05998
575.6947
437.38477
584.77288
417.20927
665.39826
657.86072
637.36883
633.86674
0
0
0
36.397197
0
0
0
0
0
0
73.666114
122.6441
0
0
0
0
0
182.38903
0
0
0
0
0
0
625.32483
624.70663
494.27114
423.0503
417.46551
0
0
0
0
0
0
0
0
0
467.05981
340.82441
0
183.96291
449.70774
346.49648
0
0
0
0
0
0
150.63828
0
0
0
0
0
0
0
0
0
0
0
0
0
0
0
0
0
0
256.98151
230.71898
249.21854
449.2278
0
404.80725
496.73689
609.81416
526.81734
414.18577
335.80346
255.03795
294.48572
45.729172
202.61813
225.19045
0
0
0
0
0
0
0
0
0
0
0
0
0
0
0
13.952727
0
0
0
0
0
0
0
0
447.54387
362.7949
435.23713
337.34599
566.59934
547.27231
551.42514
625.20247
558.94328
205.31166
122.64605
0
349.08799
531.68604
595.22356
547.13892
595.19058
639.33723
452.6432
482.37947
493.05982
626.56339
102.90229
338.99934
79.975328
0
0
0
587.96282
428.85324
434.24791
528.94104
298.33071
274.98803
100.11634
225.15425
102.92413
0
0
0
476.61236
361.01751
369.38321
552.08414
43.61418
564.81373
591.06947
209.11217
291.21596
296.99732
176.93426
232.06937
209.01014
209.47548
170.50594
237.11922
232.40084
225.20406
70.235865
196.3322
201.85288
198.5054
226.50213
0
0
64.803876
99.161413
176.93065
0
8.1015073
0
0
0
0
0
0
0
0
0
0
0
0
0
0
0
0
0
0
323.08868
341.36197
242.21515
333.38822
358.70074
0
0
0
0
0
235.11788
305.09501
241.95924
0
0
0
157.05521
241.67363
241.67223
156.99234
0
0
0
262.27615
241.66625
338.11504
346.50129
157.20741
167.38748
233.02391
187.01031
0.47171925
266.4992
375.80042
0
0
0
0
0
0
0
0
0
0
0
0
0
0
0
0
0
0
0
0
0
0
0
0
0
0
0
0
0
0
0
0
0
0
0
0
19.254151
103.04371
220.59087
103.04329
16.975708
0
0
0
0
0
0
0
0
0
12.299623
53.037662
80.819945
11.294819
1.0431902
57.892217
70.634977
37.995701
0
0
0
113.18969
0
0
0
0
0
0
0
0
0
0
0
0
0
0
0
0
0
0
0
0
0
0
0
0
0
0
0
0
0
0
0
0
0
0
0
0
0
0
0
0
0
0
0
0
0
0
72.133316
0
0
133.53632
173.09573
50.645956
0
0
166.66824
408.68457
483.59818
234.04028
266.23014
226.24306
277.73479
271.93558
301.94813
328.68014
343.82639
343.89489
325.47666
424.46497
357.85926
380.33884
524.41226
579.24901
542.48596
491.46733
350.73534
336.46505
450.16469
436.35675
514.37099
582.38561
435.17731
520.47764
506.96737
379.37307
435.22685
314.71442
237.02573
340.38885
542.3566
519.0837
507.61444
543.89396
554.77829
526.34521
368.14779
226.20616
225.19075
237.96433
312.57952
334.62157
263.18194
316.29949
334.62208
0
0
0
0
0
344.93477
315.91973
327.15159
454.07684
414.65129
422.08557
449.13332
453.7398
546.549
546.52033
454.61817
419.58934
34.324926
553.90395
389.55801
432.60362
541.01318
452.11741
549.24056
485.90606
499.67879
465.01948
360.85941
234.04072
382.92159
309.26636
547.76591
597.74274
561.29864
628.46059
670.77907
669.89379
640.43881
664.18529
643.41468
664.01949
326.6028
189.61933
189.73552
108.97716
0
0
0
0
0
25.239425
22.351019
1.2748497
133.73391
126.31873
141.83977
254.66688
114.71747
342.42523
342.42176
234.65403
632.39299
132.52726
90.711255
0
0
0
161.10468
164.23657
192.5218
196.06506
193.07105
211.07166
527.64796
621.75348
591.06825
615.47938
618.41251
636.8485
232.07573
0
81.046122
)


1120
(
0
0
0
0
0
0
0
0
0
0
0
0
0
0
0
0
0
0
0
0
0
0
0
0
0
0
0
0
15.825355
0
0
0
0
0
0
0
0
0
0
0
0
0
0
0
0
0
0
0
0
0
0
0
0
0
0
0
0
0
0
0
0
0
0
0
0
0
0
0
0
0
0
0
0
0
0
0
0
0
0
0
0
0
0
0
0
0
0
0
0
0
0
0
0
0
0
0
0
0
0
0
13.811154
15.825355
15.825355
0
0
0
0
0
0
0
0
0
0
0
0
0
0
0
0
0
0
0
0
0
0
0
0
0
0
0
0
0
0
0
0
0
0
0
0
0
13.811154
13.811154
13.811154
13.811154
13.811154
15.825355
15.825355
13.811154
0
0
0
0
0
0
0
0
0
0
0
0
0
0
0
0
0
0
0
0
0
0
0
0
0
0
0
0
0
0
0
0
0
0
0
0
0
0
0
0
0
0
0
0
0
0
0
0
0
0
0
0
0
0
0
0
0
0
0
0
0
0
0
0
0
0
0
0
0
0
0
0
0
0
0
0
0
0
0
0
0
0
0
0
0
0
0
0
0
0
0
0
0
0
0
0
0
0
0
0
0
339.79878
0
0
0
0
0
0
0
419.20228
457.83843
364.63498
0
341.01853
0
0
0
0
18.198734
57.027178
45.110621
42.62677
6.1376055
42.626782
0
0
0
0
0
0
0
0
0
0
0
0
0
0
0
0
0
0
0
0
0
0
0
0
0
0
0
0
0
0
0
0
0
0
0
0
51.427528
0
0
45.049558
441.99831
113.97301
206.64938
0
0
0
418.24723
495.79275
43.846416
42.626094
516.13058
495.89912
496.70188
506.85862
495.79678
42.627044
2.1599569
403.46607
411.47058
487.51837
359.84025
447.74235
119.62284
45.460409
404.53247
478.53915
451.57782
457.605
408.83425
409.91502
351.76215
225.13202
323.47969
286.58468
0
465.68629
412.68894
0
0
0
0
0
0
0
0
0
0
0
0.66198947
4.4859806
535.84962
497.18344
568.4756
395.24297
0
353.67721
0
0
333.97231
0
0
0
0
0
223.34519
0
0
170.73445
0
0
0
0
0
0
0
0
0
0
0
0
0
0
0
0
420.02165
525.68658
488.40483
450.57254
401.97563
132.91732
285.64383
31.48549
30.896448
31.317777
44.594417
36.860636
33.442568
44.560127
3.2228964
26.688006
13.813149
11.278215
27.273317
10.731346
34.015959
39.430409
9.1635297
8.1927766
7.0180427
8.3740206
3.1106059
3.4884803
7.7041639
7.4892539
0
0
0
0
0
0
0
0
0
0
0
0
0
0
0
0
0
0
0
266.75258
263.14926
0
269.24272
273.69321
0
0
0
0
0
0
0
0
0
0
0
0
0
22.992471
0
116.26744
98.731237
159.23818
0
0
0
0
0
0
0
0
0
0
0
0
0
0
0
0
0
0
0
0
0
0
0
0
0
0
0
0
0
0
0
0
0
0
0
0
0
0
0
0
0
0
0
0
0
0
0
0
0
0
0
0
0
0
0
163.70896
63.955545
0
0
0
0
0
0
0
0
15.815639
0
0
0
0
0
0
0
0
0
0
0
0
0
0
0
0
0
0
0
0
0
0
0
0
0
0
0
0
0
0
0
0
0
0
0
0
0
0
0
0
0
0
0
36.581616
40.325348
300.00271
307.98723
376.58585
286.85
106.45471
355.82725
315.60669
220.67875
333.02237
403.7546
413.91653
401.68334
495.79072
515.34921
522.45013
44.593654
436.77571
282.36708
44.519654
514.79393
513.59485
514.73289
561.73347
460.46081
515.59744
560.76698
580.36848
514.94719
575.1653
495.79133
458.81273
282.13465
39.307008
1.6574018
4.6170736
9.1587019
1.900571
5.24315
419.28143
411.64582
487.5147
486.66633
490.93922
268.39102
427.42333
484.56899
513.44004
64.238577
166.81603
40.279673
230.57128
251.86763
339.64075
502.46561
479.20022
526.35917
389.16077
554.75492
369.34494
600.83675
577.81385
540.47096
596.36718
0
0
0
0
0
0
0
0
0
0
20.637515
133.55803
0
0
0
0
0
216.68926
0
0
0
0
0
0
590.87273
604.8899
386.47872
305.61295
337.4024
6.9247408
6.2187204
0
0
0
0
0
0
0
360.27195
254.22641
0
47.811409
338.36678
256.35923
0
0
0
0
0
0
13.593999
0
0
0
0
0
0
0
0
0
0
0
0
0
0
0
0
0
0
107.14198
76.268528
97.174717
336.39038
0
399.42927
386.69515
525.93387
358.00656
437.54535
352.61186
265.75291
304.12418
103.43535
176.83416
36.060975
0
0
0
0
0
0
0
0
0
0
0
0
0
0
0
12.604338
1.7383866
0
0
0
0
0
0
0
508.38076
436.75783
501.68478
404.66826
566.14181
568.54035
584.52402
622.77302
578.03405
178.30209
246.70105
0.53002833
408.21865
521.39831
544.65401
554.32591
539.94272
549.42084
478.91793
471.12646
518.52016
599.74627
220.38509
357.34573
201.63302
0
0
0
370.71774
254.48635
261.28063
441.74061
0
325.41572
0
224.97956
0
0
0
0
461.03923
379.85377
357.93621
470.32854
7.03982
585.62361
606.73502
111.30836
209.55876
221.04538
276.43906
330.73748
33.792001
33.363599
31.451658
35.800796
32.499263
33.232805
8.4374434
13.113451
31.443427
32.507029
35.246124
6.1911339
4.884867
112.36445
25.216598
32.232661
6.2036697
7.3626061
0
0
0
0
0
0
0
0
0
0
0
0
0
0
0
0
0
0
196.27194
177.75349
122.13672
206.80723
189.48507
0
0
0
0
0
0
0
0
0
0
0
0
0
0
0
0
0
0
0
122.93014
174.27317
256.36227
0
41.802128
116.2667
63.573964
0
156.34128
244.8766
0
0
0
0
0
0
0
0
0
0
0
0
0
0
0
0
0
0
0
0
0
0
0
0
0
0
0
0
0
0
0
0
0
0
0
0
38.89203
141.83181
224.02266
141.83017
39.765927
0
0
0
0
0
0
0
0
0
110.95363
147.43426
170.7318
95.22173
102.73134
57.641393
0
134.04132
0
0
0
0
0
0
0
0
0
0
0
0
0
0
0
0
0
0
0
0
0
0
0
0
0
0
0
0
0
0
0
0
0
0
0
0
0
0
0
0
0
0
0
0
0
0
0
0
0
0
36.39548
0
0
4.3912459
59.956846
0
0
0
22.389441
326.47388
372.76363
235.1563
204.8631
135.33976
200.21267
185.94438
247.57089
268.33155
204.89147
208.62933
167.53297
271.87267
194.18447
249.63361
495.45007
518.68921
459.66344
461.91592
294.76928
288.78691
514.79564
503.22693
566.81295
598.65065
501.83661
549.16472
562.22229
446.38494
501.67739
412.94508
334.38526
436.35424
581.52696
569.81653
562.67602
579.02711
589.07901
570.53729
462.15704
347.06147
36.061016
37.135944
411.69352
432.37275
39.531703
416.12734
432.3718
1.3284914
1.6012755
6.0672698
8.0925484
4.7160161
404.92414
340.9684
354.13906
488.67058
416.62892
423.89786
484.942
488.46181
553.76044
554.0498
490.34227
424.1981
6.2438846
427.08063
232.60523
304.06981
409.57959
307.39725
412.2865
338.89497
469.36068
433.28703
322.47945
235.15501
374.14539
323.39862
520.63867
573.24155
551.273
531.1077
612.35252
607.72059
604.23515
617.05066
543.66134
616.68556
397.47018
285.93052
286.07054
12.523611
0
0
0
0
0
90.443216
88.661807
79.347993
111.32613
102.38002
13.840363
87.787344
33.427613
403.48514
403.48215
316.04829
623.53034
254.53616
210.25115
0
0
0
147.79124
148.37807
33.737994
12.209781
267.44831
30.667085
553.21408
622.99386
606.73489
616.91202
621.87463
627.1101
330.74176
0
56.888381
)


1120
(
0
0
0
0
0
0
0
0
0
0
0
0
0
0
0
0
0
0
0
0
0
0
0
0
0
0
0
0
0
0
0
0
0
0
0
0
0
0
0
0
0
0
0
0
0
0
0
0
0
0
0
0
0
0
0
0
0
0
0
0
0
0
0
0
0
0
0
0
0
0
0
0
0
0
0
0
0
0
0
0
0
0
0
0
0
0
0
0
0
0
0
0
0
0
0
0
0
0
0
0
0
0
0
0
0
0
0
0
0
0
0
0
0
0
0
0
0
0
0
0
0
0
0
0
0
0
0
0
0
0
0
0
0
0
0
0
0
0
0
0
0
0
0
0
0
0
0
0
0
0
0
0
0
0
0
0
0
0
0
0
0
0
0
0
0
0
0
0
0
0
0
0
0
0
0
0
0
0
0
0
0
0
0
0
0
0
0
0
0
0
0
0
0
0
0
0
0
0
0
0
0
0
0
0
0
0
0
0
0
0
0
0
0
0
0
0
0
0
0
0
0
0
0
0
0
0
0
0
0
0
0
0
0
0
0
0
0
0
0
0
0
0
0
0
0
0
0
0
0
0
0
0
0
0
0
0
0
457.13896
464.02705
402.6799
0
0
0
0
0
0
0
34.792041
0
0
0
0
0
0
0
0
0
0
0
0
0
0
0
0
0
0
0
0
0
0
0
0
0
0
0
0
0
0
0
0
0
0
0
0
0
0
0
0
0
0
0
0
343.09715
6.9507495
74.745455
0
0
0
345.02094
138.01329
0
0
135.39844
203.30518
138.1499
134.04089
203.27679
0
0
0
377.55678
123.26916
213.37048
313.37107
24.299492
54.893136
258.96723
374.92228
354.47586
319.02485
0
0
0
0
0
0
0
0
0
0
0
0
0
0
0
0
0
0
0
0
0
0
496.80416
399.36306
492.34499
401.1054
0
0
0
0
0
0
0
0
0
0
0
0
0
0
0
0
0
0
0
0
0
0
0
0
0
0
0
0
0
0
376.23519
0
0
0
0
24.865627
229.61502
0
0
0
0
0
0
0
0
0
0
0
0
0
0
0
0
0
0
0
0
0
0
0
0
0
0
0
0
0
0
0
0
0
0
0
0
0
0
0
0
0
0
0
0
0
0
0
0
0
0
0
0
0
0
0
0
0
0
0
0
0
0
0
0
0
0
0
0
0
0
0
0
0
0
0
0
0
0
0
0
0
0
0
0
0
0
0
0
0
0
0
0
0
0
0
0
0
0
0
0
0
0
0
0
0
0
0
0
0
0
0
0
0
0
0
0
0
0
0
0
0
0
0
0
0
0
0
0
0
0
0
0
0
0
0
0
0
0
0
0
0
0