/*--------------------------------*- C++ -*----------------------------------*\
  =========                 |
  \\      /  F ield         | OpenFOAM: The Open Source CFD Toolbox
   \\    /   O peration     | Website:  https://openfoam.org
    \\  /    A nd           | Version:  8
     \\/     M anipulation  |
\*---------------------------------------------------------------------------*/
/*   Windows 32 and 64 bit porting by blueCAPE: http://www.bluecape.com.pt   *\
|  Based on Windows porting (2.0.x v4) by Symscape: http://www.symscape.com   |
\*---------------------------------------------------------------------------*/
FoamFile
{
    version     2.0;
    format      ascii;
    class       scalarListList;
    location    "constant/vegetation";
    object      sunViewCoeff;
}
// * * * * * * * * * * * * * * * * * * * * * * * * * * * * * * * * * * * * * //


5
(

77
(
423.08962
717.08284
717.08284
649.92571
344.83837
428.72541
69.139602
22.726585
717.08284
44.129495
530.82146
717.08284
717.08284
18.701157
717.08284
55.036069
699.45861
37.087603
644.07176
428.38726
52.731651
34.94949
61.358086
21.342613
717.08284
717.08284
71.294855
717.08284
675.24233
51.153794
424.78583
50.493235
243.72082
717.08284
717.08284
608.14974
425.39165
35.303742
36.690695
23.130173
717.08284
499.18366
33.25421
26.246973
582.71243
717.08284
57.199855
29.300087
717.08284
49.496466
25.345849
717.08284
42.829888
0
0
0
0
0
0
409.12857
10.381576
10.204882
237.27728
542.96278
552.683
24.120505
24.681355
209.54595
790.90106
19.414606
0
0
0
18.375817
224.05359
265.56465
0.42709982
)


77
(
24.510183
191.91606
236.09942
0
0
585.76158
585.76158
23.85672
0
43.41159
529.70931
585.76158
0
24.910369
0
190.70487
291.63939
33.025165
585.76158
498.51927
97.057846
0
285.30556
49.247084
585.76158
585.76158
585.76158
585.76158
474.01492
351.1904
32.93425
30.083452
190.44178
489.77619
585.76158
585.76158
337.82355
41.186184
84.563324
28.634178
560.31601
0
23.704281
20.224239
331.58581
233.55488
88.375762
68.166705
585.76158
0
47.840504
585.76158
21.765507
0
0
0
0
0
0
363.37269
37.212583
27.388253
278.39382
546.86034
421.07732
20.34027
7.6328549
52.521235
688.13036
100.62438
13.16237
0
0
29.088063
84.042638
368.18513
123.38171
)


77
(
23.428849
22.51658
37.581406
0
0
536.2201
51.269878
0
0
0
0
509.32645
0
0
0
398.02174
74.335469
0
78.639578
0
0
0
0
0
506.6285
221.54362
175.56544
29.752722
34.304835
325.47841
29.054391
0
0
0
0
0
0
0
0
0
214.25012
0
0
0
0
0
0
87.609761
0
0
0
175.74426
0
0
0
0
0
0
0
371.52499
8.1297696
0
36.280277
611.23563
336.08944
21.897888
0
16.190976
661.71613
271.72
32.368231
0
0
14.213895
10.267862
491.55774
290.25605
)


77
(
0
0
0
0
0
0
0
0
0
0
0
0
0
0
0
15.825355
0
0
0
0
0
0
0
0
0
0
0
0
0
0
0
0
0
0
0
0
0
0
0
0
0
0
0
0
0
0
0
13.811154
0
0
0
0
0
0
0
0
0
0
0
320.7169
0
0
0
588.00897
180.97261
5.9823252
0
25.746514
540.20335
105.86977
3.279146
0
0
0
2.2344894
522.24071
364.31744
)


77
(
0
0
0
0
0
0
0
0
0
0
0
0
0
0
0
0
0
0
0
0
0
0
0
0
0
0
0
0
0
0
0
0
0
0
0
0
0
0
0
0
0
0
0
0
0
0
0
0
0
0
0
0
0
0
0
0
0
0
0
118.12031
0
0
0
542.50145
9.3858063
0
0
7.0016605
393.77102
0
0
0
0
0
0
322.83694
344.20311
)

)


// ************************************************************************* //
