/*--------------------------------*- C++ -*----------------------------------*\
  =========                 |
  \\      /  F ield         | OpenFOAM: The Open Source CFD Toolbox
   \\    /   O peration     | Website:  https://openfoam.org
    \\  /    A nd           | Version:  8
     \\/     M anipulation  |
\*---------------------------------------------------------------------------*/
/*   Windows 32 and 64 bit porting by blueCAPE: http://www.bluecape.com.pt   *\
|  Based on Windows porting (2.0.x v4) by Symscape: http://www.symscape.com   |
\*---------------------------------------------------------------------------*/
FoamFile
{
    version     2.0;
    format      ascii;
    class       scalarListList;
    location    "constant/vegetation";
    object      skyViewCoeff;
}
// * * * * * * * * * * * * * * * * * * * * * * * * * * * * * * * * * * * * * //


5
(

794
(
0
0
0
0
0
0
0
0
0
0
0
0
302
302
302
302
302
302
302
302
302
302
302
302
302
302
302
302
302
302
302
302
302
302
302
302
302
302
302
302
302
302
302
302
302
302
302
302
302
302
302
302
302
302
302
302
302
302
302
302
302
302
302
302
302
302
302
302
302
302
302
302
302
302
302
302
302
302
302
0
0
0
0
0
0
0
0
0
0
0
0
0
0
0
0
0
0
0
0
0
0
0
0
0
0
0
0
0
0
0
0
0
0
0
0
0
0
0
151
151
151
151
301.99999
302
151
151
151
151
151
151
151
151
302
151
302
151
151
151
151
151
151
151
151
151
151
151
151
151
302
302
302
151
151
151
151
151
151
151
151
151
151
151
151
151
151
151
151
151
151
151
151
151
151
151
151
151
151
151
151
151
151
151
151
151
151
151
151
151
151
151
151
151
151
151
151
151
302
302
151
151
151
151
301.99999
151
151
151
151
151
151
151
151
151
151
151
151
151
151
151
151
151
151
151
151
302
302
302
302
151
151
151
151
151
151
151
151
151
151
151
151
151
151
151
151
151
151
151
151
151
151
151
151
151
151
151
151
151
151
151
151
151
151
151
151
151
151
151
151
151
301.99999
302
151
301.99999
301.99999
302
302
301.99999
151
301.99999
301.99999
301.99999
301.99999
301.99999
302
151
151
301.99999
301.99999
301.99999
301.99999
301.99999
301.99999
301.99999
302
301.99999
301.99999
301.99999
151
151
151
301.99999
151
151
151
151
302
151
151
151
301.99999
151
151
151
151
151
151
151
301.99999
301.99999
301.99999
151
151
151
151
151
151
301.99999
151
301.99999
301.99999
151
301.99999
301.99999
302
302
302
302
302
302
302
151
151
301.99999
151
301.99999
301.99999
151
301.99999
301.99999
302
301.99999
302
302
301.99999
302
302
302
302
302
302
302
302
151
151
151
151
151
151
151
151
151
151
151
151
301.99999
301.99999
302
151
151
301.99999
151
151
151
151
151
151
151
151
151
151
151
151
151
151
301.99999
301.99999
301.99999
151
301.99999
302
301.99999
302
301.99999
301.99999
301.99999
301.99999
301.99999
301.99999
301.99999
301.99999
301.99999
151
151
151
151
151
151
151
301.99999
151
301.99999
301.99999
151
151
151
301.99999
301.99999
151
151
151
151
151
301.99999
302
302
301.99999
301.99999
302
301.99999
302
302
151
151
151
151
151
151
151
151
151
151
151
151
151
151
151
151
151
151
151
151
151
151
151
151
151
151
151
151
151
151
151
302
151
151
151
151
151
151
151
151
151
151
151
151
151
151
151
151
151
302
151
151
151
151
151
151
151
151
151
151
301.99999
301.99999
301.99999
301.99999
151
151
151
151
151
151
151
151
151
151
301.99999
151
301.99999
151
301.99999
301.99999
302
151
151
151
302
302
302
302
151
151
151
151
151
151
151
151
151
151
151
151
151
151
151
151
151
151
151
151
151
151
151
151
151
151
151
151
151
151
151
151
151
151
151
151
151
151
151
151
151
151
151
151
151
151
151
151
151
151
151
151
151
151
151
151
151
151
151
151
151
151
151
151
151
151
151
151
151
151
151
151
151
151
151
151
151
151
151
151
151
151
151
151
151
151
151
151
151
151
151
151
151
151
151
151
151
151
151
151
151
151
151
151
151
151
151
151
151
151
151
151
151
151
151
151
151
151
151
151
151
151
151
151
151
151
151
151
151
151
151
151
151
151
151
151
151
151
151
151
151
151
151
151
151
151
151
151
151
151
151
151
151
151
151
151
151
151
151
151
151
151
151
151
151
151
151
151
151
151
151
151
151
151
151
151
151
151
151
151
151
151
151
151
151
151
151
151
151
151
151
151
151
151
151
151
151
151
151
151
151
151
151
151
151
151
151
302
301.99999
301.99999
151
302
302
302
302
151
301.99999
301.99999
301.99999
301.99999
301.99999
301.99999
301.99999
151
301.99999
301.99999
151
301.99999
301.99999
301.99999
302
301.99999
301.99999
301.99999
301.99999
301.99999
301.99999
301.99999
302
302
301.99999
301.99999
301.99999
302
302
302
301.99999
301.99999
301.99999
302
151
301.99999
301.99999
151
301.99999
301.99999
301.99999
301.99999
301.99999
301.99999
301.99999
302
302
301.99999
302
302
)


794
(
0
0
0
0
0
0
0
0
0
0
0
0
383
383
383
383
383
383
383
383
383
383
383
383
383
383
383
383
383
383
383
383
383
383
383
383
383
383
383
383
383
383
383
383
383
383
383
383
383
383
383
383
383
383
383
383
383
383
383
383
383
383
383
383
383
383
383
383
383
383
383
383
383
383
383
383
383
383
382.99999
0
0
0
0
0
0
0
0
0
0
0
0
0
0
0
0
0
0
0
0
0
0
0
0
0
0
0
0
0
0
0
0
0
0
0
0
0
0
0
191.5
191.5
191.5
191.5
382.99999
383
191.5
191.5
191.5
191.5
191.5
191.5
191.5
191.5
383
191.5
383
191.5
191.5
191.5
191.5
191.5
191.5
191.5
191.5
191.5
191.5
191.5
191.5
191.5
383
383
382.99999
191.5
191.5
191.5
191.5
191.5
191.5
191.5
191.5
191.5
191.5
191.5
191.5
191.5
191.5
191.5
191.5
191.5
191.5
191.5
191.5
191.5
191.5
191.5
191.5
191.5
191.5
191.5
191.5
191.5
191.5
191.5
191.5
191.5
191.5
191.5
191.5
191.5
191.5
191.5
191.5
191.5
191.5
191.5
191.5
191.5
383
383
191.5
191.5
191.5
191.5
382.99999
191.5
191.5
191.5
191.5
191.5
191.5
191.5
191.5
191.5
191.5
191.5
191.5
191.5
191.5
191.5
191.5
191.5
191.5
191.5
191.5
382.99999
383
383
383
191.5
191.5
191.5
191.5
191.5
191.5
191.5
191.5
191.5
191.5
191.5
191.5
191.5
191.5
191.5
191.5
191.5
191.5
191.5
191.5
191.5
191.5
191.5
191.5
191.5
191.5
191.5
191.5
191.5
191.5
191.5
191.5
191.5
191.5
191.5
191.5
191.5
191.5
191.5
191.5
191.5
382.99999
383
191.5
382.99999
382.99999
382.99999
383
382.99999
191.5
382.99999
382.99999
382.99999
382.99999
382.99999
383
191.5
191.5
382.99999
382.99999
382.99999
382.99999
382.99999
382.99999
382.99999
383
382.99999
382.99999
382.99999
191.5
191.5
191.5
382.99999
191.5
191.5
191.5
191.5
382.99999
191.5
191.5
191.5
382.99999
191.5
191.5
191.5
191.5
191.5
191.5
191.5
382.99999
382.99999
382.99999
191.5
191.5
191.5
191.5
191.5
191.5
382.99999
191.5
382.99999
382.99999
191.5
382.99999
382.99999
382.99999
383
383
383
383
383
383
191.5
191.5
382.99999
191.5
382.99999
382.99999
191.5
382.99999
382.99999
382.99999
382.99999
382.99999
382.99999
382.99999
382.99999
382.99999
383
383
383
383
383
383
191.5
191.5
191.5
191.5
191.5
191.5
191.5
191.5
191.5
191.5
191.5
191.5
382.99999
382.99999
382.99999
191.5
191.5
382.99999
191.5
191.5
191.5
191.5
191.5
191.5
191.5
191.5
191.5
191.5
191.5
191.5
191.5
191.5
382.99999
382.99999
382.99999
191.5
382.99999
383
382.99999
383
382.99999
382.99999
382.99999
382.99999
382.99999
382.99999
382.99999
382.99999
382.99999
191.5
191.5
191.5
191.5
191.5
191.5
191.5
382.99999
191.5
382.99999
382.99999
191.5
191.5
191.5
382.99999
382.99999
191.5
191.5
191.5
191.5
191.5
382.99999
382.99999
382.99999
382.99999
382.99999
382.99999
382.99999
382.99999
382.99999
191.5
191.5
191.5
191.5
191.5
191.5
191.5
191.5
191.5
191.5
191.5
191.5
191.5
191.5
191.5
191.5
191.5
191.5
191.5
191.5
191.5
191.5
191.5
191.5
191.5
191.5
191.5
191.5
191.5
191.5
191.5
383
191.5
191.5
191.5
191.5
191.5
191.5
191.5
191.5
191.5
191.5
191.5
191.5
191.5
191.5
191.5
191.5
191.5
382.99999
191.5
191.5
191.5
191.5
191.5
191.5
191.5
191.5
191.5
191.5
382.99999
382.99999
382.99999
382.99999
191.5
191.5
191.5
191.5
191.5
191.5
191.5
191.5
191.5
191.5
382.99999
191.5
382.99999
191.5
382.99999
382.99999
382.99999
191.5
191.5
191.5
383
383
383
383
191.5
191.5
191.5
191.5
191.5
191.5
191.5
191.5
191.5
191.5
191.5
191.5
191.5
191.5
191.5
191.5
191.5
191.5
191.5
191.5
191.5
191.5
191.5
191.5
191.5
191.5
191.5
191.5
191.5
191.5
191.5
191.5
191.5
191.5
191.5
191.5
191.5
191.5
191.5
191.5
191.5
191.5
191.5
191.5
191.5
191.5
191.5
191.5
191.5
191.5
191.5
191.5
191.5
191.5
191.5
191.5
191.5
191.5
191.5
191.5
191.5
191.5
191.5
191.5
191.5
191.5
191.5
191.5
191.5
191.5
191.5
191.5
191.5
191.5
191.5
191.5
191.5
191.5
191.5
191.5
191.5
191.5
191.5
191.5
191.5
191.5
191.5
191.5
191.5
191.5
191.5
191.5
191.5
191.5
191.5
191.5
191.5
191.5
191.5
191.5
191.5
191.5
191.5
191.5
191.5
191.5
191.5
191.5
191.5
191.5
191.5
191.5
191.5
191.5
191.5
191.5
191.5
191.5
191.5
191.5
191.5
191.5
191.5
191.5
191.5
191.5
191.5
191.5
191.5
191.5
191.5
191.5
191.5
191.5
191.5
191.5
191.5
191.5
191.5
191.5
191.5
191.5
191.5
191.5
191.5
191.5
191.5
191.5
191.5
191.5
191.5
191.5
191.5
191.5
191.5
191.5
191.5
191.5
191.5
191.5
191.5
191.5
191.5
191.5
191.5
191.5
191.5
191.5
191.5
191.5
191.5
191.5
191.5
191.5
191.5
191.5
191.5
191.5
191.5
191.5
191.5
191.5
191.5
191.5
191.5
191.5
191.5
191.5
191.5
191.5
191.5
191.5
191.5
191.5
191.5
191.5
191.5
191.5
191.5
191.5
191.5
191.5
191.5
191.5
191.5
191.5
191.5
383
382.99999
382.99999
191.5
383
383
383
383
191.5
382.99999
382.99999
382.99999
382.99999
382.99999
382.99999
382.99999
191.5
382.99999
382.99999
191.5
382.99999
382.99999
382.99999
383
382.99999
382.99999
382.99999
382.99999
382.99999
382.99999
382.99999
383
383
382.99999
382.99999
382.99999
383
383
383
382.99999
382.99999
382.99999
382.99999
191.5
382.99999
382.99999
191.5
382.99999
382.99999
382.99999
382.99999
382.99999
382.99999
382.99999
382.99999
382.99999
382.99999
382.99999
382.99999
)


794
(
0
0
0
0
0
0
0
0
0
0
0
0
334
334
334
334
334
334
334
334
334
334
334
334
334
334
334
334
334
334
334
334
334
334
334
334
334
334
334
334
334
334
334
334
334
334
334
334
334
334
334
334
334
334
334
334
334
334
334
334
334
334
334
334
334
334
334
334
334
334
334
334
334
334
334
334
334
334
334
0
0
0
0
0
0
0
0
0
0
0
0
0
0
0
0
0
0
0
0
0
0
0
0
0
0
0
0
0
0
0
0
0
0
0
0
0
0
0
167
167
167
167
333.99999
334
167
167
167
167
167
167
167
167
334
167
334
167
167
167
167
167
167
167
167
167
167
167
167
167
334
334
333.99999
167
167
167
167
167
167
167
167
167
167
167
167
167
167
167
167
167
167
167
167
167
167
167
167
167
167
167
167
167
167
167
167
167
167
167
167
167
167
167
167
167
167
167
167
167
334
334
167
167
167
167
333.99999
167
167
167
167
167
167
167
167
167
167
167
167
167
167
167
167
167
167
167
167
333.99999
334
334
334
167
167
167
167
167
167
167
167
167
167
167
167
167
167
167
167
167
167
167
167
167
167
167
167
167
167
167
167
167
167
167
167
167
167
167
167
167
167
167
167
167
333.99999
334
167
333.99999
333.99999
333.99999
334
333.99999
167
333.99999
333.99999
333.99999
333.99999
333.99999
334
167
167
333.99999
333.99999
333.99999
333.99999
333.99999
333.99999
333.99999
334
333.99999
333.99999
333.99999
167
167
167
333.99999
167
167
167
167
333.99999
167
167
167
333.99999
167
167
167
167
167
167
167
333.99999
333.99999
333.99999
167
167
167
167
167
167
333.99999
167
333.99999
333.99999
167
333.99999
333.99999
333.99999
334
334
334
334
334
334
167
167
333.99999
167
333.99999
333.99999
167
333.99999
333.99999
333.99999
333.99999
333.99999
333.99999
333.99999
333.99999
333.99999
334
334
334
334
334
334
167
167
167
167
167
167
167
167
167
167
167
167
333.99999
333.99999
333.99999
167
167
333.99999
167
167
167
167
167
167
167
167
167
167
167
167
167
167
333.99999
333.99999
333.99999
167
333.99999
334
333.99999
334
333.99999
333.99999
333.99999
333.99999
333.99999
333.99999
333.99999
333.99999
333.99999
167
167
167
167
167
167
167
333.99999
167
333.99999
333.99999
167
167
167
333.99999
333.99999
167
167
167
167
167
333.99999
333.99999
333.99999
333.99999
333.99999
333.99999
333.99999
333.99999
333.99999
167
167
167
167
167
167
167
167
167
167
167
167
167
167
167
167
167
167
167
167
167
167
167
167
167
167
167
167
167
167
167
334
167
167
167
167
167
167
167
167
167
167
167
167
167
167
167
167
167
333.99999
167
167
167
167
167
167
167
167
167
167
333.99999
333.99999
333.99999
333.99999
167
167
167
167
167
167
167
167
167
167
333.99999
167
333.99999
167
333.99999
333.99999
333.99999
167
167
167
334
334
334
334
167
167
167
167
167
167
167
167
167
167
167
167
167
167
167
167
167
167
167
167
167
167
167
167
167
167
167
167
167
167
167
167
167
167
167
167
167
167
167
167
167
167
167
167
167
167
167
167
167
167
167
167
167
167
167
167
167
167
167
167
167
167
167
167
167
167
167
167
167
167
167
167
167
167
167
167
167
167
167
167
167
167
167
167
167
167
167
167
167
167
167
167
167
167
167
167
167
167
167
167
167
167
167
167
167
167
167
167
167
167
167
167
167
167
167
167
167
167
167
167
167
167
167
167
167
167
167
167
167
167
167
167
167
167
167
167
167
167
167
167
167
167
167
167
167
167
167
167
167
167
167
167
167
167
167
167
167
167
167
167
167
167
167
167
167
167
167
167
167
167
167
167
167
167
167
167
167
167
167
167
167
167
167
167
167
167
167
167
167
167
167
167
167
167
167
167
167
167
167
167
167
167
167
167
167
167
167
334
333.99999
333.99999
167
334
334
334
334
167
333.99999
333.99999
333.99999
333.99999
333.99999
333.99999
333.99999
167
333.99999
333.99999
167
333.99999
333.99999
333.99999
334
333.99999
333.99999
333.99999
333.99999
333.99999
333.99999
333.99999
334
334
333.99999
333.99999
333.99999
334
334
334
333.99999
333.99999
333.99999
333.99999
167
333.99999
333.99999
167
333.99999
333.99999
333.99999
333.99999
333.99999
333.99999
333.99999
333.99999
333.99999
333.99999
333.99999
333.99999
)


794
(
0
0
0
0
0
0
0
0
0
0
0
0
273
273
273
273
273
273
273
273
273
273
273
273
273
273
273
273
273
273
273
273
273
273
273
273
273
273
273
273
273
273
273
273
273
273
273
273
273
273
273
273
273
273
273
273
273
273
273
273
273
273
273
273
273
273
273
273
273
273
273
273
273
273
273
273
273
273
273
0
0
0
0
0
0
0
0
0
0
0
0
0
0
0
0
0
0
0
0
0
0
0
0
0
0
0
0
0
0
0
0
0
0
0
0
0
0
0
136.5
136.5
136.5
136.5
272.99999
273
136.5
136.5
136.5
136.5
136.5
136.5
136.5
136.5
273
136.5
273
136.5
136.5
136.5
136.5
136.5
136.5
136.5
136.5
136.5
136.5
136.5
136.5
136.5
273
273
273
136.5
136.5
136.5
136.5
136.5
136.5
136.5
136.5
136.5
136.5
136.5
136.5
136.5
136.5
136.5
136.5
136.5
136.5
136.5
136.5
136.5
136.5
136.5
136.5
136.5
136.5
136.5
136.5
136.5
136.5
136.5
136.5
136.5
136.5
136.5
136.5
136.5
136.5
136.5
136.5
136.5
136.5
136.5
136.5
136.5
273
273
136.5
136.5
136.5
136.5
272.99999
136.5
136.5
136.5
136.5
136.5
136.5
136.5
136.5
136.5
136.5
136.5
136.5
136.5
136.5
136.5
136.5
136.5
136.5
136.5
136.5
273
273
273
273
136.5
136.5
136.5
136.5
136.5
136.5
136.5
136.5
136.5
136.5
136.5
136.5
136.5
136.5
136.5
136.5
136.5
136.5
136.5
136.5
136.5
136.5
136.5
136.5
136.5
136.5
136.5
136.5
136.5
136.5
136.5
136.5
136.5
136.5
136.5
136.5
136.5
136.5
136.5
136.5
136.5
273
273
136.5
273
273
273
273
273
136.5
272.99999
272.99999
273
272.99999
273
273
136.5
136.5
273
272.99999
272.99999
273
272.99999
272.99999
273
273
273
272.99999
272.99999
136.5
136.5
136.5
273
136.5
136.5
136.5
136.5
273
136.5
136.5
136.5
272.99999
136.5
136.5
136.5
136.5
136.5
136.5
136.5
273
272.99999
272.99999
136.5
136.5
136.5
136.5
136.5
136.5
272.99999
136.5
272.99999
272.99999
136.5
273
273
273
273
273
273
273
273
273
136.5
136.5
272.99999
136.5
272.99999
272.99999
136.5
273
273
273
273
273
273
273
273
273
273
273
273
273
273
273
136.5
136.5
136.5
136.5
136.5
136.5
136.5
136.5
136.5
136.5
136.5
136.5
273
273
273
136.5
136.5
272.99999
136.5
136.5
136.5
136.5
136.5
136.5
136.5
136.5
136.5
136.5
136.5
136.5
136.5
136.5
273
273
273
136.5
273
273
273
273
273
272.99999
272.99999
272.99999
273
272.99999
273
272.99999
272.99999
136.5
136.5
136.5
136.5
136.5
136.5
136.5
272.99999
136.5
272.99999
272.99999
136.5
136.5
136.5
272.99999
272.99999
136.5
136.5
136.5
136.5
136.5
273
273
273
273
273
273
273
273
273
136.5
136.5
136.5
136.5
136.5
136.5
136.5
136.5
136.5
136.5
136.5
136.5
136.5
136.5
136.5
136.5
136.5
136.5
136.5
136.5
136.5
136.5
136.5
136.5
136.5
136.5
136.5
136.5
136.5
136.5
136.5
273
136.5
136.5
136.5
136.5
136.5
136.5
136.5
136.5
136.5
136.5
136.5
136.5
136.5
136.5
136.5
136.5
136.5
273
136.5
136.5
136.5
136.5
136.5
136.5
136.5
136.5
136.5
136.5
273
273
272.99999
272.99999
136.5
136.5
136.5
136.5
136.5
136.5
136.5
136.5
136.5
136.5
272.99999
136.5
272.99999
136.5
273
273
273
136.5
136.5
136.5
273
273
273
273
136.5
136.5
136.5
136.5
136.5
136.5
136.5
136.5
136.5
136.5
136.5
136.5
136.5
136.5
136.5
136.5
136.5
136.5
136.5
136.5
136.5
136.5
136.5
136.5
136.5
136.5
136.5
136.5
136.5
136.5
136.5
136.5
136.5
136.5
136.5
136.5
136.5
136.5
136.5
136.5
136.5
136.5
136.5
136.5
136.5
136.5
136.5
136.5
136.5
136.5
136.5
136.5
136.5
136.5
136.5
136.5
136.5
136.5
136.5
136.5
136.5
136.5
136.5
136.5
136.5
136.5
136.5
136.5
136.5
136.5
136.5
136.5
136.5
136.5
136.5
136.5
136.5
136.5
136.5
136.5
136.5
136.5
136.5
136.5
136.5
136.5
136.5
136.5
136.5
136.5
136.5
136.5
136.5
136.5
136.5
136.5
136.5
136.5
136.5
136.5
136.5
136.5
136.5
136.5
136.5
136.5
136.5
136.5
136.5
136.5
136.5
136.5
136.5
136.5
136.5
136.5
136.5
136.5
136.5
136.5
136.5
136.5
136.5
136.5
136.5
136.5
136.5
136.5
136.5
136.5
136.5
136.5
136.5
136.5
136.5
136.5
136.5
136.5
136.5
136.5
136.5
136.5
136.5
136.5
136.5
136.5
136.5
136.5
136.5
136.5
136.5
136.5
136.5
136.5
136.5
136.5
136.5
136.5
136.5
136.5
136.5
136.5
136.5
136.5
136.5
136.5
136.5
136.5
136.5
136.5
136.5
136.5
136.5
136.5
136.5
136.5
136.5
136.5
136.5
136.5
136.5
136.5
136.5
136.5
136.5
136.5
136.5
136.5
136.5
136.5
136.5
136.5
136.5
136.5
136.5
136.5
136.5
136.5
136.5
136.5
136.5
136.5
136.5
136.5
136.5
136.5
136.5
273
273
273
136.5
273
273
273
273
136.5
273
273
273
273
273
273
273
136.5
273
273
136.5
273
273
273
273
273
272.99999
272.99999
273
273
272.99999
273
273
273
273
272.99999
272.99999
273
273
273
273
273
273
273
136.5
272.99999
272.99999
136.5
272.99999
272.99999
272.99999
272.99999
272.99999
272.99999
273
273
273
273
273
273
)


794
(
0
0
0
0
0
0
0
0
0
0
0
0
230
230
230
230
230
230
230
230
230
230
230
230
230
230
230
230
230
230
230
230
230
230
230
230
230
230
230
230
230
230
230
230
230
230
230
230
230
230
230
230
230
230
230
230
230
230
230
230
230
230
230
230
230
230
230
230
230
230
230
230
230
230
230
230
230
230
230
0
0
0
0
0
0
0
0
0
0
0
0
0
0
0
0
0
0
0
0
0
0
0
0
0
0
0
0
0
0
0
0
0
0
0
0
0
0
0
115
115
115
115
230
230
115
115
115
115
115
115
115
115
230
115
230
115
115
115
115
115
115
115
115
115
115
115
115
115
230
230
230
115
115
115
115
115
115
115
115
115
115
115
115
115
115
115
115
115
115
115
115
115
115
115
115
115
115
115
115
115
115
115
115
115
115
115
115
115
115
115
115
115
115
115
115
115
230
230
115
115
115
115
230
115
115
115
115
115
115
115
115
115
115
115
115
115
115
115
115
115
115
115
115
230
230
230
230
115
115
115
115
115
115
115
115
115
115
115
115
115
115
115
115
115
115
115
115
115
115
115
115
115
115
115
115
115
115
115
115
115
115
115
115
115
115
115
115
115
230
230
115
230
230
230
230
230
115
230
230
230
230
230
230
115
115
230
230
230
230
230
230
230
230
230
230
230
115
115
115
230
115
115
115
115
230
115
115
115
230
115
115
115
115
115
115
115
230
230
230
115
115
115
115
115
115
230
115
230
230
115
230
230
230
230
230
230
230
230
230
115
115
230
115
230
230
115
230
230
230
230
230
230
230
230
230
230
230
230
230
230
230
115
115
115
115
115
115
115
115
115
115
115
115
230
230
230
115
115
230
115
115
115
115
115
115
115
115
115
115
115
115
115
115
230
230
230
115
230
230
230
230
230
230
230
230
230
230
230
230
230
115
115
115
115
115
115
115
230
115
230
230
115
115
115
230
230
115
115
115
115
115
230
230
230
230
230
230
230
230
230
115
115
115
115
115
115
115
115
115
115
115
115
115
115
115
115
115
115
115
115
115
115
115
115
115
115
115
115
115
115
115
230
115
115
115
115
115
115
115
115
115
115
115
115
115
115
115
115
115
230
115
115
115
115
115
115
115
115
115
115
230
230
230
230
115
115
115
115
115
115
115
115
115
115
230
115
230
115
230
230
230
115
115
115
230
230
230
230
115
115
115
115
115
115
115
115
115
115
115
115
115
115
115
115
115
115
115
115
115
115
115
115
115
115
115
115
115
115
115
115
115
115
115
115
115
115
115
115
115
115
115
115
115
115
115
115
115
115
115
115
115
115
115
115
115
115
115
115
115
115
115
115
115
115
115
115
115
115
115
115
115
115
115
115
115
115
115
115
115
115
115
115
115
115
115
115
115
115
115
115
115
115
115
115
115
115
115
115
115
115
115
115
115
115
115
115
115
115
115
115
115
115
115
115
115
115
115
115
115
115
115
115
115
115
115
115
115
115
115
115
115
115
115
115
115
115
115
115
115
115
115
115
115
115
115
115
115
115
115
115
115
115
115
115
115
115
115
115
115
115
115
115
115
115
115
115
115
115
115
115
115
115
115
115
115
115
115
115
115
115
115
115
115
115
115
115
115
115
115
115
115
115
115
115
115
115
115
115
115
115
115
115
115
115
115
230
230
230
115
230
230
230
230
115
230
230
230
230
230
230
230
115
230
230
115
230
230
230
230
230
230
230
230
230
230
230
230
230
230
230
230
230
230
230
230
230
230
230
115
230
230
115
230
230
230
230
230
230
230
230
230
230
230
230
)

)


// ************************************************************************* //
