/*--------------------------------*- C++ -*----------------------------------*\
  =========                 |
  \\      /  F ield         | OpenFOAM: The Open Source CFD Toolbox
   \\    /   O peration     | Website:  https://openfoam.org
    \\  /    A nd           | Version:  8
     \\/     M anipulation  |
\*---------------------------------------------------------------------------*/
/*   Windows 32 and 64 bit porting by blueCAPE: http://www.bluecape.com.pt   *\
|  Based on Windows porting (2.0.x v4) by Symscape: http://www.symscape.com   |
\*---------------------------------------------------------------------------*/
FoamFile
{
    version     2.0;
    format      ascii;
    class       scalarListList;
    location    "constant/vegetation";
    object      sunViewCoeff;
}
// * * * * * * * * * * * * * * * * * * * * * * * * * * * * * * * * * * * * * //


5
(

794
(
0
0
0
0
0
0
0
0
0
0
0
0
501.05251
501.05251
501.05251
501.05251
501.05251
501.05251
501.05251
501.05251
501.05251
501.05251
501.05251
501.05251
501.05251
501.05251
501.05251
501.05251
501.05251
501.05251
501.05251
501.05251
501.05251
501.05251
501.05251
501.05251
501.05251
501.05251
501.05251
501.05251
501.05251
501.05251
501.05251
501.05251
501.05251
501.05251
501.05251
501.05251
501.05251
501.05251
501.05251
501.05251
501.05251
501.05251
501.05251
501.05251
501.05251
501.05251
501.05251
501.05251
501.05251
501.05251
501.05251
501.05251
501.05251
501.05251
501.05251
501.05251
501.05251
501.05251
501.05251
501.05251
501.05251
501.05251
501.05251
501.05251
501.05251
501.05251
501.05251
0
0
0
0
0
0
0
0
0
0
0
0
0
0
0
0
0
0
0
0
0
0
0
0
0
0
0
0
0
0
0
0
0
0
0
0
0
0
0
81.062547
81.062547
81.062547
81.062547
501.05251
501.05251
81.062547
81.062547
81.062547
81.062547
81.062547
81.062547
81.062547
81.062547
501.05251
81.062547
501.05251
81.062547
81.062547
81.062547
81.062547
81.062547
81.062547
81.062547
81.062547
81.062547
81.062547
81.062547
81.062547
81.062547
501.05251
501.05251
501.05251
81.062547
81.062547
81.062547
81.062547
81.062547
81.062547
81.062547
81.062547
81.062547
81.062547
81.062547
81.062547
81.062547
81.062547
81.062547
81.062547
81.062547
81.062547
81.062547
81.062547
81.062547
81.062547
81.062547
81.062547
81.062547
81.062547
81.062547
81.062547
81.062547
81.062547
81.062547
81.062547
81.062547
81.062547
81.062547
81.062547
81.062547
81.062547
81.062547
81.062547
81.062547
81.062547
81.062547
81.062547
81.062547
501.05251
501.05251
81.062547
81.062547
81.062547
81.062547
501.05251
81.062547
81.062547
81.062547
81.062547
81.062547
81.062547
81.062547
81.062547
81.062547
81.062547
81.062547
81.062547
81.062547
81.062547
81.062547
81.062547
81.062547
81.062547
81.062547
81.062547
501.05251
501.05251
501.05251
501.05251
81.062547
81.062547
81.062547
81.062547
81.062547
81.062547
81.062547
81.062547
81.062547
81.062547
81.062547
81.062547
81.062547
81.062547
81.062547
81.062547
81.062547
81.062547
81.062547
81.062547
81.062547
81.062547
81.062547
81.062547
81.062547
81.062547
81.062547
81.062547
81.062547
81.062547
81.062547
81.062547
81.062547
81.062547
81.062547
81.062547
81.062547
81.062547
81.062547
81.062547
81.062547
501.05251
501.05251
81.062547
501.05251
501.05251
501.05251
501.05251
501.05251
81.062547
501.05251
501.05251
501.05251
501.05251
501.05251
501.05251
81.062547
81.062547
501.05251
501.05251
501.05251
501.05251
501.05251
501.05251
501.05251
501.05251
501.05251
501.05251
501.05251
81.062547
81.062547
81.062547
501.05251
81.062547
81.062547
81.062547
81.062547
501.05251
81.062547
81.062547
81.062547
501.05251
81.062547
81.062547
81.062547
81.062547
81.062547
81.062547
81.062547
501.05251
501.05251
501.05251
81.062547
81.062547
81.062547
81.062547
81.062547
81.062547
501.05251
81.062547
501.05251
501.05251
81.062547
501.05251
501.05251
501.05251
501.05251
501.05251
501.05251
501.05251
501.05251
501.05251
81.062547
81.062547
501.05251
81.062547
501.05251
501.05251
81.062547
501.05251
501.05251
501.05251
501.05251
501.05251
501.05251
501.05251
501.05251
501.05251
501.05251
501.05251
501.05251
501.05251
501.05251
501.05251
81.062547
81.062547
81.062547
81.062547
81.062547
81.062547
81.062547
81.062547
81.062547
81.062547
81.062547
81.062547
501.05251
501.05251
501.05251
81.062547
81.062547
501.05251
81.062547
81.062547
81.062547
81.062547
81.062547
81.062547
81.062547
81.062547
81.062547
81.062547
81.062547
81.062547
81.062547
81.062547
501.05251
501.05251
501.05251
81.062547
501.05251
501.05251
501.05251
501.05251
501.05251
501.05251
501.05251
501.05251
501.05251
501.05251
501.05251
501.05251
501.05251
81.062547
81.062547
81.062547
81.062547
81.062547
81.062547
81.062547
501.05251
81.062547
501.05251
501.05251
81.062547
81.062547
81.062547
501.05251
501.05251
81.062547
81.062547
81.062547
81.062547
81.062547
501.05251
501.05251
501.05251
501.05251
501.05251
501.05251
501.05251
501.05251
501.05251
81.062547
81.062547
81.062547
81.062547
81.062547
81.062547
81.062547
81.062547
81.062547
81.062547
81.062547
81.062547
81.062547
81.062547
81.062547
81.062547
81.062547
81.062547
81.062547
81.062547
81.062547
81.062547
81.062547
81.062547
81.062547
81.062547
81.062547
81.062547
81.062547
81.062547
81.062547
501.05251
81.062547
81.062547
81.062547
81.062547
81.062547
81.062547
81.062547
81.062547
81.062547
81.062547
81.062547
81.062547
81.062547
81.062547
81.062547
81.062547
81.062547
501.05251
81.062547
81.062547
81.062547
81.062547
81.062547
81.062547
81.062547
81.062547
81.062547
81.062547
501.05251
501.05251
501.05251
501.05251
81.062547
81.062547
81.062547
81.062547
81.062547
81.062547
81.062547
81.062547
81.062547
81.062547
501.05251
81.062547
501.05251
81.062547
501.05251
501.05251
501.05251
81.062547
81.062547
81.062547
501.05251
501.05251
501.05251
501.05251
81.062547
81.062547
81.062547
81.062547
81.062547
81.062547
81.062547
81.062547
81.062547
81.062547
81.062547
81.062547
81.062547
81.062547
81.062547
81.062547
81.062547
81.062547
81.062547
81.062547
81.062547
81.062547
81.062547
81.062547
81.062547
81.062547
81.062547
81.062547
81.062547
81.062547
81.062547
81.062547
81.062547
81.062547
81.062547
81.062547
81.062547
81.062547
81.062547
81.062547
81.062547
81.062547
81.062547
81.062547
81.062547
81.062547
81.062547
81.062547
81.062547
81.062547
81.062547
81.062547
81.062547
81.062547
81.062547
81.062547
81.062547
81.062547
81.062547
81.062547
81.062547
81.062547
81.062547
81.062547
81.062547
81.062547
81.062547
81.062547
81.062547
81.062547
81.062547
81.062547
81.062547
81.062547
81.062547
81.062547
81.062547
81.062547
81.062547
81.062547
81.062547
81.062547
81.062547
81.062547
81.062547
81.062547
81.062547
81.062547
81.062547
81.062547
81.062547
81.062547
81.062547
81.062547
81.062547
81.062547
81.062547
81.062547
81.062547
81.062547
81.062547
81.062547
81.062547
81.062547
81.062547
81.062547
81.062547
81.062547
81.062547
81.062547
81.062547
81.062547
81.062547
81.062547
81.062547
81.062547
81.062547
81.062547
81.062547
81.062547
81.062547
81.062547
81.062547
81.062547
81.062547
81.062547
81.062547
81.062547
81.062547
81.062547
81.062547
81.062547
81.062547
81.062547
81.062547
81.062547
81.062547
81.062547
81.062547
81.062547
81.062547
81.062547
81.062547
81.062547
81.062547
81.062547
81.062547
81.062547
81.062547
81.062547
81.062547
81.062547
81.062547
81.062547
81.062547
81.062547
81.062547
81.062547
81.062547
81.062547
81.062547
81.062547
81.062547
81.062547
81.062547
81.062547
81.062547
81.062547
81.062547
81.062547
81.062547
81.062547
81.062547
81.062547
81.062547
81.062547
81.062547
81.062547
81.062547
81.062547
81.062547
81.062547
81.062547
81.062547
81.062547
81.062547
81.062547
81.062547
81.062547
81.062547
81.062547
81.062547
81.062547
81.062547
81.062547
81.062547
81.062547
81.062547
81.062547
81.062547
81.062547
81.062547
81.062547
81.062547
81.062547
81.062547
81.062547
501.05251
501.05251
501.05251
81.062547
501.05251
501.05251
501.05251
501.05251
81.062547
501.05251
501.05251
501.05251
501.05251
501.05251
501.05251
501.05251
81.062547
501.05251
501.05251
81.062547
501.05251
501.05251
501.05251
501.05251
501.05251
501.05251
501.05251
501.05251
501.05251
501.05251
501.05251
501.05251
501.05251
501.05251
501.05251
501.05251
501.05251
501.05251
501.05251
501.05251
501.05251
501.05251
501.05251
81.062547
501.05251
501.05251
81.062547
501.05251
501.05251
501.05251
501.05251
501.05251
501.05251
501.05251
501.05251
501.05251
501.05251
501.05251
501.05251
)


794
(
0
0
0
0
0
0
0
0
0
0
0
0
284.54856
284.54856
284.54856
284.54856
284.54856
284.54856
149.45551
284.54856
177.69926
130.34388
115.40403
284.54856
198.2624
284.54856
177.82992
149.23377
107.17234
284.54856
235.88232
116.22075
0
0
0
0
0
0
284.54856
284.54856
284.54856
284.54856
284.54856
284.54856
284.54856
284.54856
284.54856
284.54856
284.54856
284.54856
284.54856
284.54856
284.54856
284.54856
284.54856
284.54856
284.54856
284.54856
284.54856
284.54856
284.54856
284.54856
284.54856
284.54856
284.54856
284.54856
284.54856
284.54856
284.54856
284.54856
284.54856
284.54856
284.54856
284.54856
284.54856
0
256.94383
284.54856
0
0
0
0
0
0
0
0
0
0
0
0
0
0
0
0
0
0
0
0
0
0
0
0
0
0
0
0
0
0
0
0
0
0
0
0
0
0
0
0
0
0
0
0
284.54856
284.54856
0
0
0
0
0
0
0
0
284.54856
0
284.54856
0
0
0
0
0
0
0
0
0
0
0
0
0
284.54856
284.54856
284.54856
0
0
0
0
0
0
0
0
0
0
0
0
0
0
0
0
0
0
0
0
0
0
0
0
0
0
0
0
0
0
0
0
0
0
0
0
0
0
0
0
0
0
0
0
0
284.54856
284.54856
0
0
0
0
284.54856
0
0
0
0
0
0
0
0
0
0
0
0
0
0
0
0
0
0
0
0
284.54856
284.54856
284.54856
284.54856
0
0
0
0
0
0
0
0
0
0
0
0
0
0
0
0
0
0
0
0
0
0
0
0
0
0
0
0
0
0
0
0
0
0
0
0
0
0
0
0
0
284.54856
284.54856
0
284.54856
284.54856
284.54856
284.54856
284.54856
0
284.54856
284.54856
284.54856
284.54856
284.54856
284.54856
0
0
284.54856
284.54856
284.54856
284.54856
284.54856
284.54856
284.54856
284.54856
284.54856
284.54856
284.54856
0
0
0
284.54856
0
0
0
0
284.54856
0
0
0
284.54856
0
0
0
0
0
0
0
284.54856
284.54856
284.54856
0
0
0
0
0
0
284.54856
0
284.54856
284.54856
0
284.54856
284.54856
284.54856
284.54856
284.54856
284.54856
284.54856
284.54856
284.54856
0
0
284.54856
0
284.54856
284.54856
0
284.54856
284.54856
284.54856
284.54856
284.54856
284.54856
284.54856
284.54856
284.54856
284.54856
284.54856
284.54856
284.54856
284.54856
284.54856
0
0
0
0
0
0
0
0
0
0
0
0
284.54856
284.54856
284.54856
0
0
284.54856
0
0
0
0
0
0
0
0
0
0
0
0
0
0
284.54856
284.54856
284.54856
0
284.54856
284.54856
284.54856
284.54856
284.54856
284.54856
284.54856
284.54856
284.54856
284.54856
284.54856
284.54856
284.54856
0
0
0
0
0
0
0
284.54856
0
284.54856
284.54856
0
0
0
284.54856
284.54856
0
0
0
0
0
284.54856
284.54856
284.54856
284.54856
284.54856
284.54856
284.54856
284.54856
284.54856
0
0
0
0
0
0
0
0
0
0
0
0
0
0
0
0
0
0
0
0
0
0
0
0
0
0
0
0
0
0
0
284.54856
0
0
0
0
0
0
0
0
0
0
0
0
0
0
0
0
0
284.54856
0
0
0
0
0
0
0
0
0
0
284.54856
284.54856
284.54856
284.54856
0
0
0
0
0
0
0
0
0
0
284.54856
0
284.54856
0
284.54856
284.54856
284.54856
0
0
0
284.54856
284.54856
284.54856
284.54856
0
0
0
0
0
0
0
0
0
0
0
0
0
0
0
0
0
0
0
0
0
0
0
0
0
0
0
0
0
0
0
0
0
0
0
0
0
0
0
0
0
0
0
0
0
0
0
0
0
0
0
0
0
0
0
0
0
0
0
0
0
0
0
0
0
0
0
0
0
0
0
0
0
0
0
0
0
0
0
0
0
0
0
0
0
0
0
0
0
0
0
0
0
0
0
0
0
0
0
0
0
0
0
0
0
0
0
0
0
0
0
0
0
0
0
0
0
0
0
0
0
0
0
0
0
0
0
0
0
0
0
0
0
0
0
0
0
0
0
0
0
0
0
0
0
0
0
0
0
0
0
0
0
0
0
0
0
0
0
0
0
0
0
0
0
0
0
0
0
0
0
0
0
0
0
0
0
0
0
0
0
0
0
0
0
0
0
0
0
0
0
0
0
0
0
0
0
0
0
0
0
0
0
0
0
0
0
284.54856
284.54856
284.54856
0
284.54856
284.54856
284.54856
284.54856
0
284.54856
284.54856
284.54856
284.54856
284.54856
284.54856
284.54856
0
284.54856
284.54856
0
284.54856
284.54856
284.54856
284.54856
284.54856
284.54856
284.54856
284.54856
284.54856
284.54856
284.54856
284.54856
284.54856
284.54856
284.54856
284.54856
284.54856
284.54856
284.54856
284.54856
284.54856
284.54856
284.54856
0
284.54856
284.54856
0
284.54856
284.54856
284.54856
284.54856
284.54856
284.54856
284.54856
284.54856
284.54856
284.54856
284.54856
284.54856
)


794
(
0
0
0
0
0
0
0
0
0
0
0
0
247.54772
247.54772
247.54772
247.54772
247.54772
0
0
212.51269
0
0
0
171.91686
0
0
0
0
0
227.04192
0
0
0
0
0
0
0
0
247.54772
247.54772
247.54772
247.54772
247.54772
247.54772
247.54772
247.54772
247.54772
247.54772
247.54772
247.54772
247.54772
247.54772
247.54772
247.54772
247.54772
247.54772
247.54772
247.54772
247.54772
247.54772
247.54772
247.54772
247.54772
247.54772
247.54772
247.54772
247.54772
247.54772
247.54772
247.54772
247.54772
63.360418
247.54772
247.54772
247.54772
0
49.57933
247.54772
0
0
0
0
0
0
0
0
0
0
0
0
0
0
0
0
0
0
0
0
0
0
0
0
0
0
0
0
0
0
0
0
0
0
0
0
0
0
0
0
0
0
0
0
247.54772
247.54772
0
0
0
0
0
0
0
0
247.54772
0
247.54772
0
0
0
0
0
0
0
0
0
0
0
0
0
247.54772
247.54772
247.54772
0
0
0
0
0
0
0
0
0
0
0
0
0
0
0
0
0
0
0
0
0
0
0
0
0
0
0
0
0
0
0
0
0
0
0
0
0
0
0
0
0
0
0
0
0
247.54772
247.54772
0
0
0
0
247.54772
0
0
0
0
0
0
0
0
0
0
0
0
0
0
0
0
0
0
0
0
247.54772
247.54772
247.54772
247.54772
0
0
0
0
0
0
0
0
0
0
0
0
0
0
0
0
0
0
0
0
0
0
0
0
0
0
0
0
0
0
0
0
0
0
0
0
0
0
0
0
0
247.54772
247.54772
0
247.54772
247.54772
247.54772
247.54772
247.54772
0
247.54772
247.54772
247.54772
247.54772
247.54772
247.54772
0
0
247.54772
247.54772
247.54772
247.54772
247.54772
247.54772
247.54772
247.54772
247.54772
247.54772
247.54772
0
0
0
247.54772
0
0
0
0
247.54772
0
0
0
247.54772
0
0
0
0
0
0
0
247.54772
247.54772
247.54772
0
0
0
0
0
0
247.54772
0
247.54772
247.54772
0
247.54772
247.54772
247.54772
247.54772
247.54772
247.54772
247.54772
247.54772
247.54772
0
0
247.54772
0
247.54772
247.54772
0
247.54772
247.54772
247.54772
247.54772
247.54772
247.54772
247.54772
247.54772
247.54772
247.54772
247.54772
247.54772
247.54772
247.54772
247.54772
0
0
0
0
0
0
0
0
0
0
0
0
247.54772
247.54772
247.54772
0
0
247.54772
0
0
0
0
0
0
0
0
0
0
0
0
0
0
247.54772
247.54772
247.54772
0
247.54772
247.54772
247.54772
247.54772
247.54772
247.54772
247.54772
247.54772
247.54772
247.54772
247.54772
247.54772
247.54772
0
0
0
0
0
0
0
247.54772
0
247.54772
247.54772
0
0
0
247.54772
247.54772
0
0
0
0
0
247.54772
247.54772
247.54772
247.54772
247.54772
247.54772
247.54772
247.54772
247.54772
0
0
0
0
0
0
0
0
0
0
0
0
0
0
0
0
0
0
0
0
0
0
0
0
0
0
0
0
0
0
0
247.54772
0
0
0
0
0
0
0
0
0
0
0
0
0
0
0
0
0
247.54772
0
0
0
0
0
0
0
0
0
0
247.54772
247.54772
247.54772
247.54772
0
0
0
0
0
0
0
0
0
0
247.54772
0
247.54772
0
247.54772
247.54772
247.54772
0
0
0
247.54772
247.54772
247.54772
247.54772
0
0
0
0
0
0
0
0
0
0
0
0
0
0
0
0
0
0
0
0
0
0
0
0
0
0
0
0
0
0
0
0
0
0
0
0
0
0
0
0
0
0
0
0
0
0
0
0
0
0
0
0
0
0
0
0
0
0
0
0
0
0
0
0
0
0
0
0
0
0
0
0
0
0
0
0
0
0
0
0
0
0
0
0
0
0
0
0
0
0
0
0
0
0
0
0
0
0
0
0
0
0
0
0
0
0
0
0
0
0
0
0
0
0
0
0
0
0
0
0
0
0
0
0
0
0
0
0
0
0
0
0
0
0
0
0
0
0
0
0
0
0
0
0
0
0
0
0
0
0
0
0
0
0
0
0
0
0
0
0
0
0
0
0
0
0
0
0
0
0
0
0
0
0
0
0
0
0
0
0
0
0
0
0
0
0
0
0
0
0
0
0
0
0
0
0
0
0
0
0
0
0
0
0
0
0
0
247.54772
247.54772
247.54772
0
247.54772
247.54772
247.54772
247.54772
0
247.54772
247.54772
247.54772
247.54772
247.54772
247.54772
247.54772
0
247.54772
247.54772
0
247.54772
247.54772
247.54772
247.54772
247.54772
247.54772
247.54772
247.54772
247.54772
247.54772
247.54772
247.54772
247.54772
247.54772
247.54772
247.54772
247.54772
247.54772
247.54772
247.54772
247.54772
247.54772
247.54772
0
247.54772
247.54772
0
247.54772
247.54772
247.54772
247.54772
247.54772
247.54772
247.54772
247.54772
247.54772
247.54772
247.54772
247.54772
)


794
(
0
0
0
0
0
0
0
0
0
0
0
0
218.93877
218.93877
218.93877
218.93877
103.012
0
0
0
0
0
0
0
0
0
0
0
0
73.370096
0
0
0
0
0
0
0
0
218.93877
218.93877
218.93877
218.93877
218.93877
218.93877
218.93877
218.93877
218.93877
218.93877
218.93877
218.93877
218.93877
218.93877
218.93877
218.93877
218.93877
218.93877
218.93877
218.93877
218.93877
218.93877
218.93877
218.93877
218.93877
218.93877
218.93877
218.93877
218.93877
218.93877
218.93877
218.93877
218.93877
0
218.93877
218.93877
218.93877
0
0
149.12403
0
0
0
0
0
0
0
0
0
0
0
0
0
0
0
0
0
0
0
0
0
0
0
0
0
0
0
0
0
0
0
0
0
0
0
0
0
0
0
0
0
0
0
0
218.93877
218.93877
0
0
0
0
0
0
0
0
218.93877
0
218.93877
0
0
0
0
0
0
0
0
0
0
0
0
0
218.93877
218.93877
218.93877
0
0
0
0
0
0
0
0
0
0
0
0
0
0
0
0
0
0
0
0
0
0
0
0
0
0
0
0
0
0
0
0
0
0
0
0
0
0
0
0
0
0
0
0
0
218.93877
218.93877
0
0
0
0
218.93877
0
0
0
0
0
0
0
0
0
0
0
0
0
0
0
0
0
0
0
0
218.93877
218.93877
218.93877
218.93877
0
0
0
0
0
0
0
0
0
0
0
0
0
0
0
0
0
0
0
0
0
0
0
0
0
0
0
0
0
0
0
0
0
0
0
0
0
0
0
0
0
218.93877
218.93877
0
218.93877
218.93877
218.93877
218.93877
218.93877
0
218.93877
218.93877
218.93877
218.93877
218.93877
218.93877
0
0
218.93877
218.93877
218.93877
218.93877
218.93877
218.93877
218.93877
218.93877
218.93877
218.93877
218.93877
0
0
0
218.93877
0
0
0
0
218.93877
0
0
0
218.93877
0
0
0
0
0
0
0
218.93877
218.93877
218.93877
0
0
0
0
0
0
218.93877
0
218.93877
218.93877
0
218.93877
218.93877
218.93877
218.93877
218.93877
218.93877
218.93877
218.93877
218.93877
0
0
218.93877
0
218.93877
218.93877
0
218.93877
218.93877
218.93877
218.93877
218.93877
218.93877
218.93877
218.93877
218.93877
218.93877
218.93877
218.93877
218.93877
218.93877
218.93877
0
0
0
0
0
0
0
0
0
0
0
0
218.93877
218.93877
218.93877
0
0
218.93877
0
0
0
0
0
0
0
0
0
0
0
0
0
0
218.93877
218.93877
218.93877
0
218.93877
218.93877
218.93877
218.93877
218.93877
218.93877
218.93877
218.93877
218.93877
218.93877
218.93877
218.93877
218.93877
0
0
0
0
0
0
0
218.93877
0
218.93877
218.93877
0
0
0
218.93877
218.93877
0
0
0
0
0
218.93877
218.93877
218.93877
218.93877
218.93877
218.93877
218.93877
218.93877
218.93877
0
0
0
0
0
0
0
0
0
0
0
0
0
0
0
0
0
0
0
0
0
0
0
0
0
0
0
0
0
0
0
218.93877
0
0
0
0
0
0
0
0
0
0
0
0
0
0
0
0
0
218.93877
0
0
0
0
0
0
0
0
0
0
218.93877
218.93877
218.93877
218.93877
0
0
0
0
0
0
0
0
0
0
218.93877
0
218.93877
0
218.93877
218.93877
218.93877
0
0
0
218.93877
218.93877
218.93877
218.93877
0
0
0
0
0
0
0
0
0
0
0
0
0
0
0
0
0
0
0
0
0
0
0
0
0
0
0
0
0
0
0
0
0
0
0
0
0
0
0
0
0
0
0
0
0
0
0
0
0
0
0
0
0
0
0
0
0
0
0
0
0
0
0
0
0
0
0
0
0
0
0
0
0
0
0
0
0
0
0
0
0
0
0
0
0
0
0
0
0
0
0
0
0
0
0
0
0
0
0
0
0
0
0
0
0
0
0
0
0
0
0
0
0
0
0
0
0
0
0
0
0
0
0
0
0
0
0
0
0
0
0
0
0
0
0
0
0
0
0
0
0
0
0
0
0
0
0
0
0
0
0
0
0
0
0
0
0
0
0
0
0
0
0
0
0
0
0
0
0
0
0
0
0
0
0
0
0
0
0
0
0
0
0
0
0
0
0
0
0
0
0
0
0
0
0
0
0
0
0
0
0
0
0
0
0
0
0
218.93877
218.93877
218.93877
0
218.93877
218.93877
218.93877
218.93877
0
218.93877
218.93877
218.93877
218.93877
218.93877
218.93877
218.93877
0
218.93877
218.93877
0
218.93877
218.93877
218.93877
218.93877
218.93877
218.93877
218.93877
218.93877
218.93877
218.93877
218.93877
218.93877
218.93877
218.93877
218.93877
218.93877
218.93877
218.93877
218.93877
218.93877
218.93877
218.93877
218.93877
0
218.93877
218.93877
0
218.93877
218.93877
218.93877
218.93877
218.93877
218.93877
218.93877
218.93877
218.93877
218.93877
218.93877
218.93877
)


794
(
0
0
0
0
0
0
0
0
0
0
0
0
180.4505
180.4505
180.4505
176.32693
0
0
0
0
0
0
0
0
0
0
0
0
0
0
0
0
0
0
0
0
0
0
180.4505
180.4505
180.4505
180.4505
180.4505
180.4505
180.4505
180.4505
180.4505
180.4505
180.4505
180.4505
180.4505
180.4505
180.4505
180.4505
180.4505
180.4505
180.4505
180.4505
180.4505
180.4505
180.4505
180.4505
180.4505
180.4505
180.4505
180.4505
180.4505
180.4505
180.4505
180.4505
91.894008
0
162.96297
180.4505
155.80184
0
0
0
0
0
0
0
0
0
0
0
0
0
0
0
0
0
0
0
0
0
0
0
0
0
0
0
0
0
0
0
0
0
0
0
0
0
0
0
0
0
0
0
0
0
0
0
180.4505
180.4505
0
0
0
0
0
0
0
0
180.4505
0
180.4505
0
0
0
0
0
0
0
0
0
0
0
0
0
180.4505
180.4505
180.4505
0
0
0
0
0
0
0
0
0
0
0
0
0
0
0
0
0
0
0
0
0
0
0
0
0
0
0
0
0
0
0
0
0
0
0
0
0
0
0
0
0
0
0
0
0
180.4505
180.4505
0
0
0
0
180.4505
0
0
0
0
0
0
0
0
0
0
0
0
0
0
0
0
0
0
0
0
180.4505
180.4505
180.4505
180.4505
0
0
0
0
0
0
0
0
0
0
0
0
0
0
0
0
0
0
0
0
0
0
0
0
0
0
0
0
0
0
0
0
0
0
0
0
0
0
0
0
0
180.4505
180.4505
0
180.4505
180.4505
180.4505
180.4505
180.4505
0
180.4505
180.4505
180.4505
180.4505
180.4505
180.4505
0
0
180.4505
180.4505
180.4505
180.4505
180.4505
180.4505
180.4505
180.4505
180.4505
180.4505
180.4505
0
0
0
180.4505
0
0
0
0
180.4505
0
0
0
180.4505
0
0
0
0
0
0
0
180.4505
180.4505
180.4505
0
0
0
0
0
0
180.4505
0
180.4505
180.4505
0
180.4505
180.4505
180.4505
180.4505
180.4505
180.4505
180.4505
180.4505
180.4505
0
0
180.4505
0
180.4505
180.4505
0
180.4505
180.4505
180.4505
180.4505
180.4505
180.4505
180.4505
180.4505
180.4505
180.4505
180.4505
180.4505
180.4505
180.4505
180.4505
0
0
0
0
0
0
0
0
0
0
0
0
180.4505
180.4505
180.4505
0
0
180.4505
0
0
0
0
0
0
0
0
0
0
0
0
0
0
180.4505
180.4505
180.4505
0
180.4505
180.4505
180.4505
180.4505
180.4505
180.4505
180.4505
180.4505
180.4505
180.4505
180.4505
180.4505
180.4505
0
0
0
0
0
0
0
180.4505
0
180.4505
180.4505
0
0
0
180.4505
180.4505
0
0
0
0
0
180.4505
180.4505
180.4505
180.4505
180.4505
180.4505
180.4505
180.4505
180.4505
0
0
0
0
0
0
0
0
0
0
0
0
0
0
0
0
0
0
0
0
0
0
0
0
0
0
0
0
0
0
0
180.4505
0
0
0
0
0
0
0
0
0
0
0
0
0
0
0
0
0
180.4505
0
0
0
0
0
0
0
0
0
0
180.4505
180.4505
180.4505
180.4505
0
0
0
0
0
0
0
0
0
0
180.4505
0
180.4505
0
180.4505
180.4505
180.4505
0
0
0
180.4505
180.4505
180.4505
180.4505
0
0
0
0
0
0
0
0
0
0
0
0
0
0
0
0
0
0
0
0
0
0
0
0
0
0
0
0
0
0
0
0
0
0
0
0
0
0
0
0
0
0
0
0
0
0
0
0
0
0
0
0
0
0
0
0
0
0
0
0
0
0
0
0
0
0
0
0
0
0
0
0
0
0
0
0
0
0
0
0
0
0
0
0
0
0
0
0
0
0
0
0
0
0
0
0
0
0
0
0
0
0
0
0
0
0
0
0
0
0
0
0
0
0
0
0
0
0
0
0
0
0
0
0
0
0
0
0
0
0
0
0
0
0
0
0
0
0
0
0
0
0
0
0
0
0
0
0
0
0
0
0
0
0
0
0
0
0
0
0
0
0
0
0
0
0
0
0
0
0
0
0
0
0
0
0
0
0
0
0
0
0
0
0
0
0
0
0
0
0
0
0
0
0
0
0
0
0
0
0
0
0
0
0
0
0
0
180.4505
180.4505
180.4505
0
180.4505
180.4505
180.4505
180.4505
0
180.4505
180.4505
180.4505
180.4505
180.4505
180.4505
180.4505
0
180.4505
180.4505
0
180.4505
180.4505
180.4505
180.4505
180.4505
180.4505
180.4505
180.4505
180.4505
180.4505
180.4505
180.4505
180.4505
180.4505
180.4505
180.4505
180.4505
180.4505
180.4505
180.4505
180.4505
180.4505
180.4505
0
180.4505
180.4505
0
180.4505
180.4505
180.4505
180.4505
180.4505
180.4505
180.4505
180.4505
180.4505
180.4505
180.4505
180.4505
)

)


// ************************************************************************* //
