/*--------------------------------*- C++ -*----------------------------------*\
  =========                 |
  \\      /  F ield         | OpenFOAM: The Open Source CFD Toolbox
   \\    /   O peration     | Website:  https://openfoam.org
    \\  /    A nd           | Version:  8
     \\/     M anipulation  |
\*---------------------------------------------------------------------------*/
/*   Windows 32 and 64 bit porting by blueCAPE: http://www.bluecape.com.pt   *\
|  Based on Windows porting (2.0.x v4) by Symscape: http://www.symscape.com   |
\*---------------------------------------------------------------------------*/
FoamFile
{
    version     2.0;
    format      ascii;
    class       polyBoundaryMesh;
    location    "constant/Building/polyMesh";
    object      boundary;
}
// * * * * * * * * * * * * * * * * * * * * * * * * * * * * * * * * * * * * * //

6
(
    sides
    {
        type            wall;
        inGroups        List<word> 1(wall);
        nFaces          450;
        startFace       79610;
    }
    buildings_to_air
    {
        type            mappedWall;
        inGroups        List<word> 
2
(
wall
mappedPatch
)
;
        nFaces          3350;
        startFace       80060;
        sampleMode      nearestPatchFace;
        sampleRegion    air;
        samplePatch     Building;
    }
    interior
    {
        type            patch;
        nFaces          3350;
        startFace       83410;
    }
    procBoundary11to6
    {
        type            processor;
        inGroups        List<word> 1(processor);
        nFaces          350;
        startFace       86760;
        matchTolerance  0.0001;
        myProcNo        11;
        neighbProcNo    6;
    }
    procBoundary11to9
    {
        type            processor;
        inGroups        List<word> 1(processor);
        nFaces          230;
        startFace       87110;
        matchTolerance  0.0001;
        myProcNo        11;
        neighbProcNo    9;
    }
    procBoundary11to10
    {
        type            processor;
        inGroups        List<word> 1(processor);
        nFaces          550;
        startFace       87340;
        matchTolerance  0.0001;
        myProcNo        11;
        neighbProcNo    10;
    }
)

// ************************************************************************* //
