/*--------------------------------*- C++ -*----------------------------------*\
  =========                 |
  \\      /  F ield         | OpenFOAM: The Open Source CFD Toolbox
   \\    /   O peration     | Website:  https://openfoam.org
    \\  /    A nd           | Version:  8
     \\/     M anipulation  |
\*---------------------------------------------------------------------------*/
/*   Windows 32 and 64 bit porting by blueCAPE: http://www.bluecape.com.pt   *\
|  Based on Windows porting (2.0.x v4) by Symscape: http://www.symscape.com   |
\*---------------------------------------------------------------------------*/
FoamFile
{
    version     2.0;
    format      ascii;
    class       polyBoundaryMesh;
    location    "constant/vegetation/polyMesh";
    object      boundary;
}
// * * * * * * * * * * * * * * * * * * * * * * * * * * * * * * * * * * * * * //

12
(
    left
    {
        type            mappedPatch;
        inGroups        List<word> 1(mappedPatch);
        nFaces          55;
        startFace       6571;
        sampleMode      nearestPatchFace;
        sampleRegion    air;
        samplePatch     left;
    }
    right
    {
        type            mappedPatch;
        inGroups        List<word> 1(mappedPatch);
        nFaces          0;
        startFace       6626;
        sampleMode      nearestPatchFace;
        sampleRegion    air;
        samplePatch     right;
    }
    back
    {
        type            mappedPatch;
        inGroups        List<word> 1(mappedPatch);
        nFaces          12;
        startFace       6626;
        sampleMode      nearestPatchFace;
        sampleRegion    air;
        samplePatch     back;
    }
    front
    {
        type            mappedPatch;
        inGroups        List<word> 1(mappedPatch);
        nFaces          0;
        startFace       6638;
        sampleMode      nearestPatchFace;
        sampleRegion    air;
        samplePatch     front;
    }
    bottom
    {
        type            mappedWall;
        inGroups        List<word> 
2
(
wall
mappedPatch
)
;
        nFaces          146;
        startFace       6638;
        sampleMode      nearestPatchFace;
        sampleRegion    air;
        samplePatch     bottom;
    }
    top
    {
        type            mappedPatch;
        inGroups        List<word> 1(mappedPatch);
        nFaces          31;
        startFace       6784;
        sampleMode      nearestPatchFace;
        sampleRegion    air;
        samplePatch     top;
    }
    tower
    {
        type            mappedWall;
        inGroups        List<word> 
2
(
wall
mappedPatch
)
;
        nFaces          359;
        startFace       6815;
        sampleMode      nearestPatchFace;
        sampleRegion    air;
        samplePatch     tower;
    }
    air_to_vegetation
    {
        type            mappedWall;
        inGroups        List<word> 
2
(
wall
mappedPatch
)
;
        nFaces          0;
        startFace       7174;
        sampleMode      nearestCell;
        sampleRegion    air;
        offsetMode      uniform;
        offset          (0 0 0);
    }
    procBoundary12to10
    {
        type            processor;
        inGroups        List<word> 1(processor);
        nFaces          152;
        startFace       7174;
        matchTolerance  0.0001;
        myProcNo        12;
        neighbProcNo    10;
    }
    procBoundary12to13
    {
        type            processor;
        inGroups        List<word> 1(processor);
        nFaces          226;
        startFace       7326;
        matchTolerance  0.0001;
        myProcNo        12;
        neighbProcNo    13;
    }
    procBoundary12to15
    {
        type            processor;
        inGroups        List<word> 1(processor);
        nFaces          12;
        startFace       7552;
        matchTolerance  0.0001;
        myProcNo        12;
        neighbProcNo    15;
    }
    procBoundary12to16
    {
        type            processor;
        inGroups        List<word> 1(processor);
        nFaces          2;
        startFace       7564;
        matchTolerance  0.0001;
        myProcNo        12;
        neighbProcNo    16;
    }
)

// ************************************************************************* //
