/*--------------------------------*- C++ -*----------------------------------*\
  =========                 |
  \\      /  F ield         | OpenFOAM: The Open Source CFD Toolbox
   \\    /   O peration     | Website:  https://openfoam.org
    \\  /    A nd           | Version:  8
     \\/     M anipulation  |
\*---------------------------------------------------------------------------*/
/*   Windows 32 and 64 bit porting by blueCAPE: http://www.bluecape.com.pt   *\
|  Based on Windows porting (2.0.x v4) by Symscape: http://www.symscape.com   |
\*---------------------------------------------------------------------------*/
FoamFile
{
    version     2.0;
    format      ascii;
    class       scalarListList;
    location    "constant/vegetation";
    object      F;
}
// * * * * * * * * * * * * * * * * * * * * * * * * * * * * * * * * * * * * * //


441
(

503
(
0.032021022
0.05816879
0.0019879104
0.0041097973
0.00046762882
0.012766542
0.0011479613
0.00060592701
0.0020441604
0.0021287072
0.004400131
0.0077277732
0.0015724962
0.00076157105
0.0035720713
0.0044031221
0.0012135609
0.00054459921
0.001415598
0.0010618866
0.00037254038
0.00112278
0.0017117238
0.0013632574
0.0013138231
0.00016495374
0.00063790754
0.00043566952
0.00050553608
0.00017221504
0.00025592587
0.00076336849
0.0010423075
0.00065187553
0.00061057744
0.11663895
0.032281266
0.0019287386
0.0036000664
0.001385863
0.002334854
0.0043579751
0.0030435283
0.003690152
0.0041513745
0.0015897968
0.0021673022
0.0042063399
0.0039737622
0.0022397485
0.004478679
0.002944859
0.0040298968
0.00014654887
0.00013999515
0.00010448382
0.00010990558
9.9258237e-05
9.4213535e-05
0.0025657557
0.0031819649
0.00015326538
0.00016013183
0.0041872087
0.0037076055
0.0001273856
0.00013360395
0.00012135697
0.00011552946
8.4440827e-05
8.9309255e-05
0.00017292501
0.00016696091
0.0017825136
0.0019767701
0.0042076572
0.004136531
7.9347867e-05
7.3353404e-05
0.0029482401
0.0024881978
0.0042336865
0.0044110473
0.003668237
0.0027261619
0.003611276
0.0042643512
0.00069754368
0.00068300483
0.00075023841
0.00063489259
0.00069723752
0.00067377487
0.00073489998
0.00063933872
0.0007505264
0.0008492138
0.00080684643
0.00079085877
0.00064803032
0.00054190171
0.00059006351
0.00059454302
0.00049737
0.00060961356
0.00053494353
0.00056666693
0.00040165947
0.00031955706
0.00034529996
0.00037087973
0.00043087997
0.00039729555
0.00046325802
0.00036989589
0.00046306591
0.00048472845
0.00052703597
0.00042668111
0.00013987017
0.00017554674
0.00014826654
0.00016509411
0.00011184625
9.4586443e-05
9.0005082e-05
0.0001077597
0.00011746899
9.9101571e-05
9.3658138e-05
0.00012426471
0.00013255581
0.00014657886
0.00015579697
0.00012586724
0.00022868706
0.00020739787
0.00024449427
0.00019441759
0.00025178902
0.00027386731
0.00029524331
0.00023411872
0.00026886877
0.00033861304
0.0003157982
0.00028785854
0.00021457362
0.0001710966
0.00018286374
0.00020005392
0.00075021609
0.00057917491
0.00067518741
0.00064636783
0.00085851133
0.00087957565
0.00077606697
0.00096768162
0.00046349624
0.0004900862
0.00054991691
0.00040976377
0.00038734092
0.00025950589
0.0003305124
0.00033659436
0.0012559665
0.0012324312
0.0011622838
0.001324756
0.0011709686
0.00098192756
0.0010734024
0.0010776731
0.0014034211
0.0012851042
0.0013746489
0.0013178779
0.0014092958
0.0013158089
0.0013287375
0.0013911234
0.00082856303
0.00087466245
0.00088607452
0.00081832043
0.00077101554
0.00069639051
0.00075959547
0.00070657457
0.00082915871
0.00087571625
0.00081707665
0.00088734501
0.0007700305
0.00069040869
0.00075874226
0.00070437579
0.0007750053
0.00085624802
0.00082501252
0.00080179661
0.00067468981
0.00057640335
0.00078309085
0.00054732105
0.00071071124
0.00070857717
0.00074805596
0.00068358655
0.0007146736
0.0006654982
0.00074024802
0.00062559538
0.0011963981
0.0010540756
0.0010955855
0.0011437959
0.0012826627
0.0012788268
0.0013485531
0.0012203508
0.00017454966
0.00018663154
0.00015721262
0.00016655937
0.00019806957
0.00012369999
0.00011725349
0.00014723874
0.00015551446
0.00010496879
0.0001110206
0.00013160194
0.00013927295
0.00017627335
0.00022221376
0.00020985889
0.00018637774
0.00045245661
0.00037640267
0.00034583574
0.0004161338
0.00019474049
0.00020536454
0.00026406731
0.00024896997
0.00032157764
0.00036329194
0.00038668465
0.00030226642
0.00023496262
0.00021815071
0.00030732928
0.00028294189
0.00090256243
0.00086642807
0.00089984298
0.00094021122
0.00078829192
0.0007773782
0.00082971321
0.0008431272
0.00092522028
0.00099101093
0.00096936996
0.00094259565
0.0007360039
0.00078141496
0.0007597023
0.00080900821
0.00018529977
0.0001764914
0.00022429274
0.00023605769
0.00015994776
0.0001680664
0.00021317296
0.00020252437
0.00027121585
0.00034368583
0.00028595209
0.00032579173
0.00025737069
0.00029271084
0.00024416259
0.00030884436
0.00013038971
0.00013734583
0.00017312135
0.00016413099
0.00015212041
0.0001445863
0.0001825082
0.00019230662
0.00020792509
0.00023519888
0.00019691389
0.00024865041
0.00021945424
0.00027731448
0.00026263478
0.00023152799
0.00079245841
0.00079031909
0.00084901513
0.00084938707
0.00077027465
0.00078260524
0.00084279815
0.00083173568
0.00095481801
0.0010054715
0.00095226777
0.0010123828
0.00095110934
0.0010077682
0.0010126596
0.00094221402
4.896818e-05
6.4624864e-05
0.0032338058
0.0041033599
0.0034771673
0.0038947706
0.00067164708
0.00058972271
0.00068921612
0.00078792671
0.00043757424
0.0005108116
0.00060080389
0.00050921517
0.00075193782
0.00082528371
0.00096380535
0.00087716997
0.0009305085
0.00088641018
0.0010305747
0.001074587
0.00022328851
0.00026513449
0.00031744124
0.00023868617
0.00029642803
0.00026966762
0.00025283726
0.00035169423
0.00036920023
0.0003119895
0.00032911571
0.0004305652
0.00054188662
0.00063678141
0.00065702277
0.00050216099
0.00054298986
0.00044172444
0.0004667166
0.00057176488
0.00083793871
0.00073275671
0.00066786936
0.0008422247
0.0012708577
0.0013095548
0.0013723639
0.0013237217
0.0013163335
0.0013257887
0.0013950924
0.0013825813
0.0012125269
0.0011373467
0.001169608
0.0012581269
0.00094902557
0.0010485864
0.0010752788
0.00095856328
0.0009330824
0.00095177435
0.001111544
0.00097937143
0.000947966
0.00095324838
0.00098595788
0.0010858014
0.0010159181
0.0010429315
0.0010109176
0.0011609469
0.0010551653
0.0011440013
0.0012487052
0.0010435738
0.0012714882
0.0012120361
0.0011609035
0.0013352968
0.0010920381
0.0010407893
0.0010333232
0.0012101543
0.00028868017
0.00037771525
0.00030573484
0.00040337613
0.00034123077
0.0003230825
0.00042529681
0.00045014877
0.0004227111
0.00055219943
0.00040119575
0.00052697373
0.00036028865
0.00038031595
0.00050096448
0.00047411316
0.0010598842
0.001232638
0.0010710853
0.0012469926
0.0010875797
0.0010804421
0.0012513313
0.0012533754
0.0010730881
0.0012040629
0.0010863676
0.0012327025
0.0010917259
0.0010917607
0.0012443943
0.0012516272
0.028619607
0.017650814
0.0058001481
0.0054445667
0.0033977671
0.010951801
0.0023588554
0.0039321334
0.0021777442
0.0022972942
0.010620788
0.047653587
0.0084607787
0.00088437075
0.0009586888
0.00098931403
0.00085880456
0.00077373482
0.00066922232
0.00099091711
0.00073292644
0.00095575151
0.00085808966
0.00085264407
0.00094513591
0.00067756241
0.00066079063
0.0007322976
0.00074550122
0.00085469222
0.00094755771
0.00094176793
0.00086450895
0.00064782944
0.00064896304
0.00072757579
0.00072559516
0.00069664881
0.0007165444
0.00078112838
0.00076252188
0.00075441397
0.00073614395
0.00079970574
0.00081697544
0.00089647233
0.00095958649
0.00087939576
0.00097349899
0.00091361458
0.00099881353
0.00092930067
0.00098697769
3.1922305e-31
0.012255045
0.0013602183
0.0029188116
0.0016359769
0.0062358839
0.011878045
0.0056626577
0.0093756936
0.031412843
0.039477535
0.0056781851
)


515
(
0.045614873
0.0022540968
0.0755175
0.056255347
0.0025607521
0.0045298739
0.0026329089
0.003937751
0.00038645961
0.00083345456
0.011552951
0.00099355374
0.015805145
0.0034445387
0.0033740121
0.0010173473
0.0042713972
0.0014757741
0.00095117909
0.00059935325
0.0018671644
0.00092837168
0.0025609608
0.00035854856
0.00027735893
0.00076309431
0.00068498901
0.00095580943
0.0008799527
0.00073486144
0.00097258569
0.00035882888
0.00038840056
0.00019300086
0.00014252944
0.016795044
0.011787787
0.0049539295
0.0022275258
0.0052962405
0.004712656
0.0018302355
0.0042320618
0.0014876875
0.0012480144
0.0055819789
0.005153372
0.0013927131
0.001564155
0.0053588755
0.0021097946
0.0048359976
0.0023953876
0.00081485973
0.00083538196
0.00088152333
0.00088352722
0.00087494501
0.00086319292
0.0041730769
0.0031763795
0.00079086641
0.00076342812
0.0025880199
0.0034450914
0.00086566079
0.00085233094
0.00087536415
0.00088137843
0.00081998923
0.0008453726
0.00069306693
0.00073182203
0.0056340309
0.0054811006
0.0015010916
0.0015619949
0.00078416715
0.00073128337
0.004512267
0.0053949135
0.0030047177
0.0022930725
0.0039902477
0.0052087027
0.0034259834
0.0023947314
0.00066496301
0.00082170759
0.00070528567
0.0007731008
0.000531679
0.00041806329
0.00044619432
0.0004962384
0.00056290523
0.00049667586
0.00059559179
0.00047087119
0.000626182
0.0006731222
0.0007261137
0.00058233917
0.00098370191
0.0009385959
0.0010487538
0.00088153532
0.001003361
0.00098618278
0.0010710105
0.00092462204
0.0010735423
0.0012237669
0.0011456273
0.0011466568
0.00092042996
0.00076387409
0.00082617054
0.00084934497
0.0011334399
0.0012653587
0.0011955594
0.0011950221
0.00099097736
0.00089331343
0.00085587129
0.00094421843
0.001043228
0.00093547403
0.00089093174
0.0010967567
0.0010701842
0.0010426601
0.0011227951
0.0010035143
0.001244109
0.0013087658
0.0013244029
0.0012318083
0.0011518769
0.0010318585
0.0011209438
0.0010605591
0.0012332471
0.0012800521
0.0012004115
0.0013139942
0.0011630128
0.001065781
0.0011535931
0.0010718792
0.0012058203
0.0012413981
0.001233964
0.001217592
0.0011641606
0.0011283756
0.0011941873
0.0010971569
0.0011491675
0.0012134809
0.0011978603
0.0011517022
0.0010731848
0.00088425279
0.0010028609
0.0010529647
0.00081311708
0.00073764171
0.00084099629
0.00071322105
0.00091436997
0.0010431632
0.0010113955
0.00094492537
0.0005318104
0.00063908639
0.00061864542
0.00054814084
0.00045399622
0.00039442794
0.00046642284
0.00038562575
0.00026787831
0.0002328543
0.00027993496
0.00022332066
0.0003083726
0.00034950971
0.00037162209
0.00029095911
0.00032339641
0.00041078692
0.00039088442
0.0003387704
0.00025596373
0.00020142468
0.00021345971
0.00024191886
0.00016018871
0.00019589107
0.00016586258
0.00018834369
0.000130937
0.00010921042
0.00014148595
0.00011158509
0.00013286644
0.00011999373
0.00013596632
0.000118969
0.00015311041
0.00016827186
0.00017975929
0.00014018368
0.00023356715
0.00019973792
0.00019827763
0.00023575183
0.00027606016
0.00033219484
0.000326495
0.00027956366
0.00063590858
0.0013284891
0.0012508972
0.0012973227
0.0013813426
0.0010473136
0.0010306413
0.0012153327
0.0012377807
0.00097503282
0.0010067594
0.0011446804
0.001184392
0.0013341349
0.0014555388
0.0014233101
0.0013614493
0.0012571908
0.0011840673
0.0012057513
0.0012846412
0.00095875476
0.0009314904
0.0011143338
0.001143518
0.0012319504
0.0013503812
0.0013145857
0.0012635208
0.00088771893
0.00090626759
0.0010717704
0.0010897989
0.00020228585
0.00017057652
0.00017446707
0.00020744393
0.00012739503
0.0001260805
0.00014415625
0.00014577638
0.00017750725
0.00021424759
0.00021138235
0.00017964895
0.00012211915
0.00013909079
0.00012427448
0.00014189201
0.00098523732
0.0010089253
0.0012012771
0.0011736189
0.0010440498
0.0010286869
0.0012244433
0.0012421959
0.0013275833
0.0013885951
0.0012967705
0.0014234281
0.0013534049
0.0014737215
0.0013729725
0.0014520763
0.0010574908
0.0010618127
0.0012595669
0.001252316
0.0010548042
0.001060797
0.0012600463
0.0012541557
0.0013895123
0.0014783436
0.0013797246
0.0014907806
0.0013913707
0.0014876719
0.0014934904
0.0013857373
0.00012816576
0.00012837521
0.00014693461
0.00014670687
0.00012711769
0.00012802192
0.00014646106
0.00014530162
0.00018111964
0.00021599337
0.00018085816
0.00021638667
0.00018044146
0.00021335546
0.00021546105
0.00017885143
0.00048428226
0.00064413693
0.0045393038
0.0032872402
0.0043531619
0.0034375014
0.0010200244
0.0011410602
0.0013138467
0.0011692351
0.0013308816
0.0012471001
0.0014319854
0.0015223417
0.00089176984
0.0007641125
0.00087249955
0.0010260549
0.00053505957
0.00064388428
0.00073856934
0.00060491846
0.0013911886
0.0014170119
0.0016481211
0.0014567426
0.0015019556
0.001546066
0.0015010071
0.0017077806
0.0013772882
0.0014047887
0.0014439719
0.0015647084
0.0013047733
0.0013068509
0.0014956548
0.0013448915
0.0013647166
0.0014268662
0.0013780765
0.0015600422
0.0012051274
0.0012649357
0.0012793219
0.0013505527
0.00069594719
0.000595864
0.00068159615
0.00080210173
0.00042538398
0.00050552784
0.00058014108
0.00048056406
0.00080362372
0.00091560788
0.0010526411
0.00092146522
0.0011290544
0.0010266757
0.0011723568
0.0012805841
0.00024363237
0.00029534339
0.00034221902
0.00025181539
0.00043721195
0.00035778129
0.00036623305
0.00049489462
0.00030772084
0.00026219499
0.00025668075
0.0003506354
0.00020867709
0.00024828676
0.00028615703
0.00021462533
0.00035342576
0.00029480265
0.00029994714
0.00039845332
0.00026055792
0.00022858259
0.00022003719
0.0003020591
0.001588066
0.001761957
0.0016043619
0.0017917775
0.0016008252
0.0016076838
0.0017948653
0.0017864051
0.0014852489
0.0016336306
0.0015268684
0.0016951196
0.001584733
0.0015600069
0.0017344486
0.0017668192
0.00023913285
0.00031850929
0.00024721594
0.00033281524
0.00025985457
0.00025414667
0.00034272776
0.00035159623
0.00026743399
0.00035995074
0.00026832206
0.00036371752
0.00026422065
0.00026709938
0.00036201724
0.00035782517
0.008626432
0.0015284263
0.00088867256
0.0013682045
0.00053400498
0.00063125957
0.0058591643
0.018623851
0.0032145483
0.00014671468
0.00017070384
0.00016965481
0.00014675356
0.00012651148
0.00011140043
0.00016221293
0.00012257935
0.00017606701
0.00015046081
0.00015287383
0.00017949182
0.00011561743
0.00011262574
0.00012798154
0.00013125918
0.0001561025
0.00018899311
0.00018365342
0.00016022613
0.00010904438
0.00011010373
0.00012391644
0.00012541003
0.00011861367
0.0001213698
0.00013811464
0.00013476554
0.00012568385
0.0001237521
0.00014106645
0.00014348779
0.00016918475
0.00019498973
0.00016476272
0.0002007744
0.0001731288
0.00021013021
0.0001763905
0.00020588562
0.0023699967
0.00097203366
0.00088016412
0.0001847485
0.00027298322
0.0012728838
0.00023393409
0.00027399977
0.00023230967
0.00049847518
0.00045292925
0.00022021723
0.0001674373
0.00014369926
0.0013824097
0.0016536511
0.065624614
0.031339075
0.0033820033
0.0034723876
0.004552736
0.014380655
0.0057720511
0.019273683
0.028072582
0.021553744
0.03386639
0.033882612
)


455
(
0.29502351
0.28152283
0.049397379
0.015135795
0.0042223153
0.0042639008
0.0030239936
0.001401645
0.0016603969
0.0016521742
0.0030753674
0.0014153946
0.0028852634
0.0017304173
0.0017488465
0.0029283474
0.0039307769
0.0021486438
0.0021361591
0.0039654022
0.00013734102
0.00014233356
0.00014623872
0.00015035345
0.00013943003
0.00012966452
0.0050798812
0.0050966782
0.00013189254
0.00012619522
0.0017990614
0.0017961266
0.00014987292
0.00014660782
0.00015181522
0.00015209486
0.00010060365
0.00011675605
0.00011381378
0.00012029074
0.0025243228
0.0021143585
0.0021393638
0.0025577857
8.1201711e-05
5.8689544e-05
0.0045998235
0.0033118025
0.0023617054
0.0027025179
0.0023571701
0.0026845154
0.0046133904
0.0033372911
0.0010460148
0.0013665615
0.0012846357
0.0011185846
0.00060495315
0.00017317927
0.00049792006
0.00021158985
0.00091731546
0.00095751157
0.0011377762
0.00076259522
0.00069527188
0.00026291912
0.00074662243
0.00024426547
0.001039425
0.0013638062
0.0012768725
0.0011162188
0.00059845848
0.00017062575
0.00049065922
0.00020928196
0.00090777144
0.00094442366
0.0011264376
0.00075175123
0.0006907595
0.00026233215
0.00074498504
0.0002426505
0.00015171925
0.00026655898
0.00020174328
0.00020164565
7.1076416e-05
1.8715298e-05
5.1214473e-05
2.4582858e-05
0.0001137662
0.00011025698
8.1826464e-05
0.00015218212
9.4965007e-05
4.3247766e-05
0.00012659995
3.2548791e-05
0.00035418624
0.00035164177
0.00046096302
0.00026779629
0.00029712724
0.00013373033
0.00038672611
0.00010223435
0.00046423408
0.0007614055
0.000598613
0.00059760306
0.00022488282
5.7734263e-05
0.00016893122
7.7063166e-05
0.00025925395
0.00024591826
0.00026817837
0.00023964272
0.00027791881
0.00030874249
0.00028924814
0.00029499251
0.00020030353
0.00022301188
0.00021972641
0.00020017348
0.00018141925
0.00014606687
0.00016776156
0.00017664113
0.00032996367
0.00035423182
0.000349193
0.00033433242
0.00032163564
0.00032590804
0.00030978724
0.00033962516
0.00033051275
0.0003544456
0.00033452174
0.00034982892
0.00032252244
0.00032728777
0.0003406482
0.00031098117
0.00036444579
0.00036695287
0.00047456534
0.00027885421
0.00030370552
0.00013618863
0.0003938556
0.00010441265
0.00047463391
0.00077480397
0.00060947394
0.00061081205
0.00023098404
5.9312997e-05
0.00017498637
7.892053e-05
0.00016571357
0.00028477123
0.00022135022
0.00021448427
7.799591e-05
1.693807e-05
7.1891223e-05
2.357134e-05
0.0001248292
0.00013472148
0.00016645296
0.00010160226
0.00010207857
4.4583119e-05
0.00013316796
3.334052e-05
0.00026170416
0.00025206404
0.00024333725
0.00027180729
0.00027976063
0.00031051924
0.0002964737
0.00029164039
0.00010498362
0.00031910673
0.00024336607
0.0002756922
0.00035802515
0.00018342107
0.00017177624
0.00023139093
0.00024492516
0.00013513109
0.00015571286
0.00018504022
0.00021151582
0.00029866035
0.00039748247
0.00038361649
0.00031288893
0.00023421019
0.00020756722
0.00021500861
0.00024481057
0.00016320626
0.00015623518
0.00019300212
0.00020233171
0.00022488911
0.00027442668
0.00025802072
0.00023723605
0.00014640197
0.00015032524
0.00018041135
0.00018553867
0.00034137946
0.00026741642
0.00030324116
0.00038315637
0.00022463553
0.00020959586
0.00025346057
0.00026888295
0.0003288515
0.00042543123
0.00041057879
0.00034490807
0.00016433713
0.00020216078
0.00018946891
0.00023127177
0.00017059242
0.00017782007
0.00022332793
0.00021272005
0.00018985768
0.00018439208
0.00023342545
0.00024237101
0.00026596902
0.00029333921
0.00025126157
0.0003134058
0.00028047822
0.0003532466
0.00029398255
0.00033364052
0.00019095988
0.00019484204
0.00025550047
0.00025270354
0.00019375555
0.00019559242
0.00025415919
0.00024952033
0.00031954005
0.00040142098
0.00031942826
0.00039702014
0.00031453679
0.00037120504
0.00038629158
0.00030565087
0.00023483108
0.0002406319
0.00028183823
0.00027808181
0.00024134519
0.00024259979
0.00028103142
0.00027655062
0.00035304975
0.000429656
0.00035252381
0.0004249614
0.00034790345
0.0003973622
0.00041349878
0.00033843571
9.5841836e-06
3.3733123e-05
0.0037969607
0.0030254139
0.0030186907
0.0038067238
0.0015343876
0.0014451236
0.0016171355
0.0017108157
0.001094339
0.0012886371
0.0014638573
0.001247822
0.0015373268
0.0014534491
0.0016259927
0.001713767
0.0011087654
0.001300938
0.001476862
0.0012633986
0.00042167384
0.00054998518
0.00068022612
0.00047062282
0.00062300962
0.00051222511
0.00049739416
0.00070454167
0.00088698622
0.00070265341
0.00075268273
0.0010314466
0.00026338732
0.00029084357
0.00034633883
0.00027931122
0.00032838539
0.00031999904
0.00029653095
0.00039575931
0.00033973897
0.00031491261
0.00033189469
0.00039845901
0.00039931075
0.00039366537
0.00047225541
0.00048020832
0.00036561775
0.00038236334
0.00045789807
0.0004325816
0.00039904995
0.00039288765
0.00047122447
0.00047988272
0.00036393114
0.00038112064
0.00045628967
0.00043037752
0.00044015661
0.00056599762
0.00069894291
0.00049098192
0.00090193335
0.00071769781
0.00076823413
0.0010478601
0.00063912737
0.00053346214
0.00051847624
0.0007216136
0.00027153408
0.00029555469
0.0003523001
0.00028881943
0.00034190909
0.00031790069
0.00033540242
0.00040124726
0.000334132
0.00033160146
0.00030707144
0.00040269598
0.00051634975
0.00070431492
0.00050484668
0.00068242903
0.0004606154
0.00048516351
0.00064813647
0.00060626899
0.00034875514
0.00043611809
0.00037660165
0.00047998836
0.00043338635
0.00040502217
0.00052025436
0.00056495262
0.00036156464
0.00044399128
0.00039062872
0.00048893486
0.00044998081
0.00042031459
0.00053028713
0.00057624035
0.00053732972
0.000720715
0.00052503006
0.00069768974
0.00047850386
0.00050427722
0.00066209329
0.00061882561
0.0059228615
0.0093905027
0.017942939
0.01808299
0.021876784
0.00021030903
0.00023366294
0.00022599441
0.00021607389
0.0001934119
0.00018567086
0.00026486267
0.00019249529
0.00024806078
0.00022748939
0.00023748748
0.00026077524
0.00020672592
0.00019789997
0.00021537275
0.00022609358
0.00024938184
0.00029354753
0.0002756368
0.00026348645
0.00018500977
0.00019010301
0.00019920179
0.00020625029
0.0002156753
0.00022412499
0.00024909414
0.00023760423
0.00023747408
0.00023155799
0.00025985762
0.00026923916
0.00029530741
0.00031394134
0.00027911426
0.00033547965
0.00031116471
0.00037814557
0.00032584316
0.00035716152
0.0023739802
0.0081892782
0.024057906
0.037566718
0.017333453
)


468
(
0.51504772
0.013369517
0.044462747
0.0091716512
0.00079265769
0.0029714428
0.00049880074
0.00051999976
0.0014110115
0.00070095434
0.0040037717
0.0015829309
0.00057469192
0.00056653256
0.0019793579
0.0036090435
0.00090078321
0.00177767
0.0008052922
0.0029117084
4.0831184e-05
4.0353327e-05
3.1197987e-05
3.3552415e-05
2.850388e-05
2.5479666e-05
0.0012640493
0.0019880523
4.1082162e-05
4.1140911e-05
0.001169472
0.0009214124
3.8580766e-05
3.9612757e-05
3.7236385e-05
3.5563891e-05
1.8491419e-05
2.2138275e-05
4.051781e-05
4.1001103e-05
0.00060353909
0.00059735671
0.0024746263
0.0030423667
1.454649e-05
1.0311517e-05
0.0013795914
0.00091639959
0.0014353113
0.0021635686
0.0010949105
0.00087751541
0.0020636552
0.0025679467
0.00034102958
0.00034081156
0.00044551513
0.00025832738
0.00028586019
0.00012881584
0.00037277368
9.8298647e-05
0.00044712476
0.00073661568
0.00057759285
0.00057770368
0.00021625655
5.5491374e-05
0.00016266553
7.4045973e-05
0.0001484448
0.00026011915
0.00019895706
0.00019549233
7.0335385e-05
1.8238856e-05
5.3994363e-05
2.380301e-05
0.00011343472
0.00011842271
0.00015297842
8.7394124e-05
9.2440708e-05
4.1610994e-05
0.00012235942
3.1353554e-05
2.1889374e-05
3.7159469e-05
3.0002227e-05
2.7121691e-05
1.0827958e-05
3.0574247e-06
8.3740573e-06
3.7193234e-06
1.762082e-05
1.8661229e-05
1.3551524e-05
2.4181736e-05
1.3424028e-05
5.6057827e-06
1.6613719e-05
4.5565018e-06
4.225838e-05
4.6223288e-05
5.7785533e-05
3.3748942e-05
3.2775708e-05
1.4116976e-05
4.1856885e-05
1.104058e-05
5.3342425e-05
9.2390956e-05
6.7954407e-05
7.274385e-05
2.5916441e-05
6.9605745e-06
2.0674388e-05
8.7235149e-06
0.00011506364
9.9808641e-05
0.00011288895
0.00010253868
0.00012888313
0.00014329466
0.00012731147
0.00014402865
8.1279526e-05
8.7931607e-05
9.1266895e-05
7.7202158e-05
7.2329727e-05
5.4797324e-05
6.6049168e-05
6.7032433e-05
0.00019676445
0.00022122824
0.00020005469
0.00021613466
0.00017811242
0.00016088482
0.00016047205
0.00017986678
0.00025535552
0.00024295531
0.00023583471
0.00026467928
0.00027410005
0.00030514399
0.00028571045
0.00029141723
0.0010296258
0.0013844634
0.0012645949
0.0011329509
0.0005832756
0.00016492924
0.00047479973
0.00020353617
0.0008865825
0.00091564972
0.00072851703
0.0010996029
0.00068179018
0.00026165207
0.00075095314
0.00023837293
0.0011485224
0.0014399533
0.0014079331
0.0011785538
0.00066889638
0.00016127718
0.00067017493
0.00020616742
0.0010096068
0.0010978294
0.0012390813
0.00089303739
0.00075165565
0.00026751558
0.00077705424
0.0002516349
0.0003288001
0.00035736058
0.00033560767
0.00034822729
0.00031920367
0.00032217943
0.00030663399
0.00033657315
3.8998587e-05
4.6559084e-05
3.7632469e-05
4.4654889e-05
5.5117917e-05
3.6012053e-05
3.2266606e-05
4.1425617e-05
4.6096471e-05
2.3544256e-05
2.8098775e-05
3.0403724e-05
3.6177767e-05
5.0972992e-05
6.9312609e-05
6.270972e-05
5.6525184e-05
8.7607348e-05
7.6069227e-05
7.479971e-05
8.6756716e-05
5.0655394e-05
5.0903355e-05
6.3095552e-05
6.282002e-05
7.4191165e-05
8.6896331e-05
8.6511267e-05
7.4109144e-05
5.2421175e-05
5.1361843e-05
6.5186938e-05
6.379264e-05
0.001567379
0.0015375631
0.0015650122
0.0015887951
0.0012241248
0.0012700974
0.0013758052
0.0013083331
0.0015213931
0.0014442976
0.0015378256
0.0014338271
0.0012229095
0.0013635688
0.0012753496
0.0014015135
5.0381364e-05
4.9914679e-05
6.2274577e-05
6.2636395e-05
4.8026032e-05
4.9150118e-05
6.1559131e-05
6.0388719e-05
7.4089404e-05
8.7524972e-05
7.4190513e-05
8.7900793e-05
7.3576552e-05
8.6933454e-05
7.2511485e-05
8.7749685e-05
3.9313269e-05
4.2160059e-05
5.3612574e-05
5.0161954e-05
4.650269e-05
4.4553249e-05
5.6452957e-05
5.8701443e-05
6.5230736e-05
7.4899021e-05
6.1279845e-05
7.9397644e-05
6.8394859e-05
8.5329306e-05
8.2842476e-05
7.0805463e-05
0.0011526286
0.0010674942
0.001114714
0.0012169489
0.00088739073
0.00097720269
0.0010103881
0.00090941808
0.0012031073
0.0013291514
0.0013229564
0.0012054271
0.0010835214
0.00096633201
0.0010825264
0.00096968558
1.6609282e-06
5.8570977e-06
0.0013495091
0.0016911669
0.0012413374
0.0019220145
0.0003233017
0.00024957155
0.00031315282
0.00040490232
0.00015049996
0.00019338648
0.00024724037
0.0001911885
0.00041905861
0.00054120161
0.00065870006
0.00051337928
0.00086803994
0.00069188409
0.00082154225
0.0010139464
5.8457805e-05
7.3358343e-05
9.7718035e-05
6.943024e-05
9.6710609e-05
8.7058911e-05
7.8596548e-05
0.00011869247
0.00011688374
9.1909624e-05
0.00010711159
0.00015021825
0.00010129578
0.00011596843
0.00013046394
0.00010161759
0.00011674707
0.00010365262
0.00010189387
0.00013272711
0.0001495739
0.00013134876
0.0001308898
0.00016561783
0.00026559279
0.00029123923
0.00034123555
0.0003079986
0.00033901039
0.00031617948
0.00037169709
0.00039931905
0.00024020364
0.00021568812
0.0002460644
0.00027749835
0.00017075307
0.00019251687
0.00021881726
0.00019052525
0.001523438
0.0014070792
0.0015913729
0.0015531838
0.001050367
0.0012352436
0.0012511445
0.0011914524
0.0013703676
0.0014207647
0.0015022708
0.001432214
0.00039604531
0.00038620478
0.00046816476
0.00043405629
0.00035576604
0.00037101182
0.00039502402
0.00041766844
0.00045488148
0.00053224273
0.00047645118
0.00055760591
9.4647982e-05
0.0001286734
9.9950284e-05
0.00013615207
0.0001062143
0.00010372448
0.00014020297
0.00014274225
0.00010620141
0.00013762816
0.00010744905
0.00014123224
0.00010756947
0.00010793931
0.00014287786
0.00014349934
0.00060215348
0.00062952189
0.00067794413
0.00071391909
0.00085924935
0.0007633939
0.00079848719
0.00090002282
0.0013226774
0.0013512314
0.0012023346
0.0012384813
0.0009654275
0.001080859
0.0011227828
0.0010035677
0.046752552
0.023444405
0.017498352
0.0319139
0.033094555
0.041988493
0.00034507476
0.0003651504
0.00034078226
0.00037056448
0.00034316045
0.00037873324
0.0005109231
0.00036024897
0.00040207561
0.00040762294
0.0004451341
0.00043913145
0.00052363422
0.00047243157
0.00046903921
0.00052067651
0.0004900357
0.00053741622
0.00048326046
0.00054457203
0.00039677917
0.00042944515
0.00039166927
0.00042628962
0.00058234755
0.00064835567
0.00065044237
0.0005811912
0.00080152279
0.00072153317
0.00072838833
0.00081490898
0.00068413565
0.00060239247
0.00060927666
0.00067765942
0.00076918581
0.00085954047
0.00086448436
0.00076325554
0.00031273306
0.00078303151
0.00087510894
9.3555294e-05
0.00071930143
0.00090881587
0.002712344
0.013443124
0.019312005
0.0096943135
0.039827366
0.00015756388
0.0057456442
0.0013135796
0.00037349691
0.00012605375
0.00017152499
)


471
(
0.014365562
0.36556039
0.02667027
0.014480729
0.001028516
0.0002776792
0.0015521159
0.00094633857
0.00033477175
0.00076775628
0.00018397697
0.00024802851
0.0015650089
0.0011136001
0.00025680158
0.00022190983
0.0011241896
0.00036337429
0.00090538006
0.00033492272
0.00040103666
0.00045432834
0.00096359139
0.00085530113
0.0010770516
0.0011890018
0.00066104021
0.00042541876
0.00035486696
0.00031492032
0.00044891081
0.00059423069
0.00058579499
0.0005156238
0.00066561108
0.00075551845
0.0013485961
0.0012870006
0.00024861825
0.00028008179
0.0014611639
0.0012958582
0.00025664267
0.00024558912
0.0013346275
0.00118267
0.00075423997
0.0011008
0.00050069358
0.00037190201
0.00068195271
0.0010176838
0.00050111533
0.00036369965
4.4204529e-05
7.653579e-05
6.0448531e-05
5.6172989e-05
2.1520417e-05
5.7887884e-06
1.72248e-05
7.2395117e-06
3.5115694e-05
3.8709775e-05
4.8169029e-05
2.8158133e-05
2.714772e-05
1.1662104e-05
3.4584727e-05
9.1426708e-06
9.3187153e-05
9.7738896e-05
0.00012579759
7.2040666e-05
7.5540485e-05
3.3780976e-05
9.9409772e-05
2.5608322e-05
0.00012142413
0.00021192817
0.00016297002
0.00015904477
5.7741032e-05
1.5022666e-05
4.448405e-05
1.9534015e-05
0.00072033433
0.00072989169
0.00089426155
0.00057751757
0.00060118803
0.00030416013
0.00073702335
0.00021981216
0.00088694227
0.001207547
0.0010344526
0.0010739277
0.00047550053
0.00013062624
0.00037496001
0.00016847478
0.00035553367
0.00058523654
0.00046078787
0.00045663889
0.00017286621
4.4701761e-05
0.00013118312
5.909634e-05
0.00027342643
0.00027573585
0.00020876196
0.00035781327
0.00022635109
0.00010119389
0.00029317433
7.7690718e-05
0.00023437524
0.00026041037
0.00024342832
0.00024991546
0.00021771642
0.00020607928
0.00022494552
0.00020055726
0.00027547998
0.00027467582
0.00026370987
0.00028519929
0.00028406055
0.00027046813
0.00029660899
0.00028876727
0.00015065052
0.000135842
0.0001519725
0.00013556738
0.00016666751
0.00018743415
0.00018340624
0.00016927137
0.00010869701
0.00012100236
0.00012156085
0.00010750296
9.6994066e-05
8.4415003e-05
9.5334958e-05
8.6432797e-05
1.5395562e-05
1.7852868e-05
2.1267563e-05
1.2896966e-05
1.1356399e-05
4.6729916e-06
1.3919011e-05
3.8072222e-06
1.8629418e-05
3.1373031e-05
2.2791916e-05
2.5681648e-05
9.3616141e-06
2.5975318e-06
7.8100819e-06
3.1303303e-06
9.4708819e-06
1.5233979e-05
1.3133984e-05
1.0985805e-05
4.8602672e-06
1.165917e-06
5.0592221e-06
1.4347133e-06
7.9807565e-06
9.9245874e-06
1.0990673e-05
7.2881519e-06
5.6723866e-06
2.17434e-06
6.6116845e-06
1.8178563e-06
6.1108282e-05
5.2504105e-05
5.4656402e-05
5.8794631e-05
6.8539123e-05
7.4688457e-05
7.696428e-05
6.6165911e-05
0.00021634482
0.00082825179
0.00099596709
0.0010344964
0.0008759905
0.0010989425
0.001190032
0.0011513544
0.0010834835
0.0012709012
0.0012550149