/*--------------------------------*- C++ -*----------------------------------*\
  =========                 |
  \\      /  F ield         | OpenFOAM: The Open Source CFD Toolbox
   \\    /   O peration     | Website:  https://openfoam.org
    \\  /    A nd           | Version:  8
     \\/     M anipulation  |
\*---------------------------------------------------------------------------*/
/*   Windows 32 and 64 bit porting by blueCAPE: http://www.bluecape.com.pt   *\
|  Based on Windows porting (2.0.x v4) by Symscape: http://www.symscape.com   |
\*---------------------------------------------------------------------------*/
FoamFile
{
    version     2.0;
    format      ascii;
    class       labelListList;
    location    "constant/vegetation";
    object      globalFaceFaces;
}
// * * * * * * * * * * * * * * * * * * * * * * * * * * * * * * * * * * * * * //


871
(

2369
(
2
17
18
19
20
21
22
23
1028
1428
1480
1561
1562
1662
1664
1665
1666
1667
1668
1669
1670
1671
1672
1694
1697
1706
1707
1708
1709
1710
1711
1712
1713
1796
1797
1802
1803
1824
1825
1826
1838
1839
1840
1841
1845
1848
1932
1933
1934
1935
1936
1937
1938
1939
1944
1947
1964
1965
1967
2267
2268
2269
2270
2271
3081
3279
3280
3391
3392
3393
3395
3396
3397
3398
3399
3400
3401
3402
3403
3404
3405
3406
3407
3408
3409
3410
3411
3412
3413
3414
3415
3416
3417
3418
3419
3420
3421
3422
3423
3424
3425
3426
3427
3428
3429
3430
3431
3432
3433
3434
3435
3436
3437
3438
3439
3440
3441
3442
3443
3444
3445
3446
3447
3448
3449
3450
3451
3452
3453
3454
3455
3456
3457
3458
3459
3460
3461
3462
3463
3464
3465
3466
3467
3468
3469
3470
3471
3472
3473
3474
3475
3476
3477
3478
3479
3480
3481
3482
3483
3484
3485
3486
3487
3488
3489
3490
3491
3492
3493
3494
3495
3496
3497
3498
3499
3500
3501
3502
3503
3504
3505
3506
3507
3508
3509
3510
3511
3512
3513
3514
3515
3516
3517
3518
3519
3520
3521
3522
3523
3524
3525
3536
3537
3538
3539
3540
3541
3542
3543
3548
3549
3550
3551
3554
3555
3556
3557
3558
3559
3560
3561
3562
3563
3564
3565
3566
3567
3572
3573
3574
3575
3578
3579
3580
3581
3599
3600
3601
3602
3603
3604
3605
3606
3607
3608
3609
3610
3611
3612
3613
3614
3615
3616
3617
3618
3619
3620
3621
3622
3623
3624
3625
3626
3627
3628
3629
3630
3631
3632
3633
3634
3635
3636
3637
3638
3639
3640
3641
3642
3643
3644
3645
3646
3647
3648
3649
3650
3651
3652
3653
3654
3655
3656
3657
3658
3659
3660
3661
3662
3663
3664
3665
3666
3667
3668
3669
3670
3671
3672
3673
3674
3675
3676
3677
3678
3679
3680
3681
3682
3684
3685
3686
3687
3688
3689
3690
3691
3692
3693
3694
3695
3696
3697
3699
3700
3701
3702
3703
3704
3705
3706
3707
3708
3709
3710
3711
3712
3714
3715
3716
3717
3718
3719
3720
3721
3722
3723
3724
3725
3726
3727
3728
3730
3731
3732
3733
3734
3735
3736
3737
3738
3739
3740
3741
3742
3743
3744
3745
3746
3747
3748
3749
3750
3751
3752
3753
3754
3755
3756
3757
3758
3759
3760
3761
3762
3763
3764
3765
3766
3767
3769
3770
3771
3772
3773
3774
3775
3776
3777
3778
3779
3780
3781
3782
3783
3784
3785
3786
3787
3788
3789
3790
3791
3793
3794
3795
3796
3797
3798
3799
3800
3801
3802
3803
3804
3805
3806
3807
3808
3809
3810
3811
3812
3813
3814
3815
3816
3817
3818
3819
3820
3821
3822
3823
3824
3825
3826
3827
3828
3829
3830
3831
3832
3833
3834
3835
3836
3837
3838
3839
3840
3841
3842
3843
3844
3845
3846
3847
3848
3849
3850
3851
3852
3853
3854
3855
3856
3857
3858
3859
3860
3864
3866
3867
3871
3872
3873
3874
3875
3876
3877
3878
3879
3880
3881
3882
3883
3884
3885
3886
3887
3888
3889
3890
3891
3892
3893
3894
3895
3896
3897
3898
3899
3900
3901
3902
3903
3904
3905
3906
3907
3908
3909
3910
3911
3912
3913
3914
3915
3916
3917
3918
3919
3920
3921
3922
3923
3924
3925
3926
3927
3928
3929
3930
3931
3932
3933
3934
3935
3936
3937
3938
3939
3940
3941
3942
3943
3944
3945
3946
3947
3948
3949
3950
3951
3953
3954
3955
3956
3957
3958
3961
3966
3967
3968
3969
3970
3982
3983
3989
3997
4013
4014
4015
4022
4026
4028
4033
4034
4036
4053
4102
4120
4121
4127
4128
4136
4137
4139
4146
4151
4152
4170
4174
4175
4176
4177
4199
4200
4256
4279
4280
4281
4290
4291
4292
4293
4294
4295
4296
4297
4298
4299
4300
4302
4304
4307
4308
4309
4310
4311
4312
4313
4314
4315
4316
4317
4318
4319
4320
4321
4322
4323
4324
4325
4326
4327
4328
4329
4330
4331
4332
4333
4334
4335
4336
4337
4338
4339
4340
4343
4344
4345
4346
4347
4348
4349
4350
4351
4352
4353
4354
4355
4356
4357
4358
4359
4360
4409
4410
4411
4425
4429
4437
4438
4439
4441
4442
4443
4445
4446
4447
4448
4514
4515
4516
4540
4541
4542
4543
4544
4545
4546
4547
4548
4549
4550
4551
4553
4554
4555
4556
4557
4558
4559
4560
4561
4562
4563
4564
4566
4567
4568
4569
4571
4573
4574
4575
4576
4577
4578
4579
4580
4581
4582
4583
4585
4586
4587
4588
4589
4590
4591
4592
4593
4594
4595
4596
4707
4709
4710
4712
4716
4717
4719
4720
4721
4726
4731
4733
4743
4751
4754
4755
4759
4765
4771
4772
4775
4776
4777
4778
4779
4781
4783
4784
4785
4798
4799
5079
5080
5084
5092
5093
5094
5095
5096
5097
5098
5100
5101
5102
5103
5104
5105
5106
5107
5108
5109
5110
5111
5112
5113
5114
5115
5116
5117
5118
5119
5120
5121
5122
5123
5124
5125
5126
5127
5128
5129
5130
5155
5156
5157
5158
5159
5160
5161
5162
5163
5164
5165
5166
5167
5168
5169
5170
5171
5173
5174
5175
5176
5177
5178
5179
5180
5181
5182
5183
5184
5185
5186
5187
5188
5189
5190
5191
5192
5194
5195
5196
5197
5198
5199
5200
5201
5202
5203
5204
5205
5206
5207
5210
5211
5212
5213
5214
5215
5216
5217
5220
5221
5222
5223
5224
5225
5226
5227
5228
5229
5547
5548
5549
5550
5551
5552
5553
5554
5555
5556
5557
5558
5559
5560
5561
5562
5563
5564
5565
5566
5567
5568
5569
5570
5571
5572
5573
5574
5575
5576
5577
5578
5579
5580
5581
5582
5583
5584
5585
5586
5587
5588
5589
5590
5591
5592
5593
5594
5595
5596
5598
5599
5600
5601
5602
5603
5604
5605
5607
5608
5609
5610
5611
5613
5614
5615
5616
5617
5618
5619
5620
5622
5623
5624
5625
5626
5628
5629
5630
5631
5632
5634
5635
5637
5638
5639
5640
5641
5643
5644
5645
5646
5647
5650
5652
5653
5654
5655
5656
5657
5658
5660
5661
5662
5663
5664
5665
5666
5667
5668
5669
5670
5671
5672
5673
5675
5676
5677
5678
5679
5680
5682
5683
5684
5685
5686
5689
5690
5691
5693
5694
5695
5696
5697
5700
5701
5702
5703
5704
5705
5707
5708
5709
5710
5711
5713
5714
5715
5716
5717
5718
5719
5720
5721
5722
5723
5725
5726
5727
5728
5729
5731
5732
5733
5734
5735
5736
5737
5738
5740
5741
5743
5744
5745
5746
5747
5748
5749
5750
5752
5753
5754
5755
5756
5757
5758
5759
5760
5761
5762
5763
5764
5765
5766
5767
5768
5772
5773
5774
5775
5776
5777
5778
5779
5780
5781
5782
5783
5796
5797
5798
5799
5800
5801
5802
5803
5804
5805
5806
5807
5808
5809
5810
5812
5813
5814
5815
5818
5819
5820
5824
5825
5826
5827
5828
5844
5845
5846
5847
5848
5849
5850
5851
5852
5853
5854
5855
5856
5857
5858
5859
5860
5861
5862
5863
5864
5869
5870
5871
5872
5873
5874
5875
5876
5877
5878
5879
5880
5883
5884
5885
5886
5887
5888
5889
5890
5891
5892
5893
5894
5900
5901
5902
5903
5904
5905
5908
5909
5910
5911
5912
5913
5916
5917
5918
5919
5920
5921
5922
5923
5924
5925
5926
5927
5928
5929
5930
5931
5932
5933
5934
5935
5936
5960
5963
5964
5965
5966
5967
5969
5970
5971
5974
5975
5976
5977
5978
5979
5980
5981
5982
5984
5985
5986
5987
5988
5989
5990
5991
5992
5993
5994
5995
5996
5997
5998
5999
6000
6001
6002
6003
6004
6005
6006
6007
6008
6009
6010
6011
6012
6013
6014
6015
6016
6017
6018
6019
6020
6022
6023
6024
6025
6026
6027
6028
6029
6030
6031
6034
6035
6036
6038
6039
6040
6041
6042
6043
6044
6045
6046
6047
6048
6049
6050
6051
6052
6053
6054
6055
6056
6066
6087
6088
6089
6090
6091
6092
6093
6094
6095
6096
6099
6100
6101
6104
6105
6106
6107
6108
6109
6111
6147
6150
6161
6162
6176
6177
6183
6187
6188
6189
6201
6203
6204
7266
7270
7271
7272
7273
7275
7276
7278
7281
7283
7284
7285
7286
7287
7288
7289
7290
7293
7294
7296
7297
7298
7299
7300
7301
7302
7798
7802
7803
7820
7830
7839
7840
7845
7849
7855
8288
8289
8290
8292
8293
8294
8295
8296
8297
8298
8299
8300
8301
8302
8303
8304
8305
8306
8307
8308
8309
8310
8311
8312
8313
8314
8315
8316
8317
8318
8319
8320
8321
8322
8323
8324
8325
8326
8327
8328
8329
8330
8331
8332
8333
8334
8335
8336
8337
8338
8339
8340
8341
8342
8343
8344
8345
8346
8347
8348
8349
8350
8351
8352
8353
8354
8355
8356
8357
8358
8359
8360
8361
8362
8363
8364
8365
8366
8367
8368
8369
8370
8371
8372
8373
8374
8375
8376
8377
8378
8379
8380
8381
8382
8383
8384
8385
8386
8388
8390
8392
8395
8441
8442
8447
8448
8449
8450
8454
8455
8456
8457
8461
8465
8469
8497
8498
8499
8500
8501
8502
8503
8504
8505
8506
8507
8508
8511
8512
8513
8514
8517
8518
8519
8520
8547
8548
8601
8604
8617
8618
8619
8620
8668
8669
8670
8671
8672
8673
8674
8675
8676
8677
8678
8679
8680
8681
8682
8683
8684
8685
8686
8687
8688
8689
8690
8691
8692
8693
8694
8695
8696
8697
8698
8699
8700
8701
8702
8703
8704
8705
8706
8707
8708
8709
8710
8711
8712
8713
8714
8715
8716
8717
8718
8719
8720
8721
8722
8723
8724
8725
8726
8727
8728
8729
8730
8731
8732
8733
8734
8735
8736
8737
8738
8739
8740
8741
8742
8743
8744
8745
8746
8747
8748
8749
8750
8751
8753
8754
8756
8757
8758
8759
8760
8762
8763
8764
8765
8766
8768
8769
8771
8772
8773
8774
8775
8776
8778
8779
8780
8781
8782
8783
8784
8785
8786
8787
8788
8789
8790
8791
8792
8793
8794
8795
8796
8797
8798
8799
8800
8801
8802
8803
8804
8805
8806
8807
8808
8809
8810
8811
8812
8813
8814
8815
8817
8818
8819
8820
8821
8822
8823
8824
8825
8826
8827
8828
8829
8830
8831
8832
8833
8834
8835
8836
8837
8838
8839
8841
8842
8843
8844
8845
8846
8847
8848
8849
8850
8851
8852
8853
8854
8855
8856
8857
8858
8859
8860
8861
8862
8863
8864
8865
8867
8868
8869
8870
8871
8872
8873
8874
8875
8876
8877
8880
8881
8882
8883
8884
8885
8886
8887
8888
8889
8890
8891
8892
8893
8894
8895
8896
8897
8898
8900
8901
8902
8903
8904
8906
8907
8908
8909
8910
8911
8912
8913
8914
8915
8916
8918
8919
8920
8921
8922
8923
8924
8925
8927
8928
8929
8930
8931
8934
8935
8936
8937
8938
8939
8940
8941
8942
8943
8944
8945
8946
8947
8948
8950
8951
8952
8953
8954
8955
8956
8957
8958
8962
8963
8964
8965
8966
8967
8968
8969
8970
8971
8972
8973
8974
8975
8977
8978
8980
8981
8982
8983
8984
8985
8986
8987
8988
8989
8990
8991
8992
8994
8995
8996
8997
8999
9000
9002
9003
9007
9008
9010
9011
9013
9014
9016
9017
9019
9020
9024
9025
9027
9028
9030
9031
9033
9034
9035
9036
9044
9046
9047
9048
9049
9050
9051
9052
9053
9054
9055
9056
9057
9058
9059
9060
9061
9062
9063
9064
9065
9066
9070
9071
9072
9073
9074
9075
9076
9077
9078
9079
9080
9081
9082
9083
9084
9085
9086
9087
9088
9089
9090
9095
9096
9097
9098
9099
9100
9101
9102
9103
9104
9105
9106
9107
9108
9109
9110
9111
9112
9113
9114
9115
9117
9118
9119
9120
9121
9122
9123
9124
9125
9126
9127
9128
9129
9130
9131
9132
9133
9134
9135
9136
9137
9138
9139
9140
9141
9142
9143
9144
9145
9146
9147
9148
9149
9150
9151
9152
9153
9154
9155
9156
9157
9158
9159
9160
9161
9162
9163
9164
9165
9166
9167
9168
9169
9170
9171
9172
9175
9176
9177
9178
9179
9180
9208
9243
9244
9245
9246
9247
10129
10131
10132
10133
10137
10138
10140
10144
10145
10151
10152
10156
10158
10164
10165
10166
10167
10171
10172
10173
10174
10175
10176
10177
10182
10184
10186
10187
10189
10201
10202
10213
10214
10218
10219
10220
10221
10227
10229
10234
10235
10253
10254
10255
10256
10257
10293
10296
10297
10298
10299
10300
10301
10302
10303
10304
10305
10306
10307
10315
10329
10330
10331
10332
10341
10342
10343
10344
10348
10349
10350
10351
10355
10356
10359
10360
10361
10362
10363
10364
10370
10371
10372
10373
10374
10375
10380
10381
10382
10383
10384
10385
10387
10388
10391
10392
10393
10394
10400
10401
10402
10403
10404
10405
10406
10407
10408
10409
10410
10411
10412
10413
10414
10415
10416
10417
10418
10419
10420
10421
10424
10425
10442
10443
10444
10445
10446
10447
10448
10449
10450
10451
10452
10453
10454
10455
10456
10457
10460
10462
10463
10465
10467
10470
10472
10473
10476
10477
10486
10487
10493
10494
10502
10503
10505
10531
10532
10535
10536
10542
10543
10544
10545
10546
10547
10548
10549
10558
10559
10560
10561
10566
10567
10568
10569
10570
10571
10572
10573
10574
10575
10576
10577
10578
10579
10580
10581
10582
10583
10584
10585
10588
10589
10590
10591
10613
10614
10615
10616
10617
10618
10619
10620
10621
10627
10630
10641
10642
10643
10644
10680
10681
10682
10683
10692
10693
10694
10695
10696
10697
10698
10699
10702
10712
10713
10714
10715
10716
10717
10718
10719
10720
10721
10722
10723
10724
10725
10726
10727
10744
10746
10751
10802
10803
10880
10883
10884
10888
10917
10918
10925
10966
10968
10971
10972
10989
10990
11006
11007
11012
11013
11020
11021
11039
11040
11041
11042
11043
11044
11045
11046
11056
11058
11104
11106
11131
11132
11133
11134
11135
11136
11137
11138
11139
11140
11141
11142
11143
11144
11145
11146
11147
11148
11149
11150
11151
11152
11153
11154
11155
11156
11157
11158
11159
11160
11161
11162
11163
11164
11165
11166
11167
11168
11169
11170
11171
11172
11173
11174
11175
11176
11177
11178
11179
11180
11181
11182
11183
11184
11185
11186
11192
11193
11194
11202
11203
11204
11205
11206
11207
11208
11209
11210
11211
11214
11215
11217
11218
11219
11220
11240
11241
11242
11243
11244
11245
11246
11247
11248
11249
11250
11251
11252
11253
11254
11255
11256
11257
11258
11259
11260
11261
11262
11263
11264
11265
11266
11267
11268
11269
11270
11271
11272
11273
11274
11275
11284
11287
11311
11316
11346
11347
11348
11349
11350
)


1806
(
17
18
20
22
23
1111
1112
1113
1114
1115
1116
1117
1131
1133
1135
1141
1152
1153
1154
1155
1156
1157
1158
1159
1163
1164
1167
1425
1428
1525
1526
1590
1591
1592
1593
1596
1842
1876
1879
1881
1884
1885
1886
1887
2088
3391
3392
3393
3394
3447
3448
3449
3450
3451
3452
3453
3454
3455
3456
3457
3458
3459
3460
3461
3462
3463
3464
3465
3466
3467
3468
3469
3470
3471
3472
3473
3474
3475
3476
3477
3478
3479
3480
3481
3482
3483
3484
3485
3486
3487
3488
3489
3490
3491
3492
3493
3494
3495
3496
3497
3498
3499
3500
3501
3502
3503
3504
3505
3506
3507
3508
3509
3510
3511
3512
3513
3514
3515
3516
3517
3518
3519
3520
3521
3522
3523
3524
3525
3536
3537
3539
3540
3542
3543
3548
3549
3550
3551
3554
3555
3556
3558
3559
3565
3566
3572
3573
3574
3575
3578
3579
3580
3581
3599
3600
3601
3602
3603
3604
3605
3606
3607
3608
3609
3610
3611
3612
3613
3614
3615
3616
3617
3618
3619
3620
3621
3622
3623
3624
3625
3626
3627
3628
3629
3630
3631
3632
3633
3634
3635
3636
3637
3638
3639
3640
3641
3642
3643
3644
3645
3646
3647
3648
3649
3650
3651
3652
3653
3654
3655
3656
3657
3658
3659
3660
3661
3662
3663
3664
3665
3666
3667
3668
3669
3670
3671
3672
3673
3674
3675
3676
3677
3678
3679
3680
3681
3682
3684
3685
3686
3687
3688
3689
3690
3691
3692
3693
3694
3695
3696
3697
3699
3700
3701
3702
3703
3704
3705
3706
3707
3708
3709
3710
3711
3714
3715
3716
3717
3718
3719
3720
3721
3722
3723
3724
3725
3726
3727
3728
3730
3731
3732
3733
3734
3735
3736
3737
3738
3739
3740
3741
3742
3743
3744
3745
3746
3747
3748
3749
3750
3751
3752
3753
3754
3755
3756
3757
3758
3761
3765
3766
3767
3769
3770
3771
3772
3773
3774
3776
3778
3779
3780
3781
3782
3783
3788
3789
3790
3791
3793
3794
3795
3796
3797
3798
3799
3800
3801
3802
3803
3804
3805
3806
3807
3808
3809
3810
3811
3812
3813
3814
3815
3816
3817
3818
3819
3820
3821
3822
3823
3824
3825
3826
3827
3828
3829
3830
3831
3832
3833
3834
3835
3836
3837
3838
3839
3840
3841
3842
3843
3844
3845
3846
3847
3848
3849
3850
3851
3852
3853
3854
3855
3856
3857
3858
3859
3860
3866
3867
3871
3872
3873
3874
3875
3876
3877
3878
3879
3880
3881
3882
3883
3884
3885
3886
3887
3888
3889
3890
3891
3892
3893
3894
3895
3896
3897
3898
3899
3900
3901
3902
3903
3904
3905
3906
3907
3908
3909
3910
3911
3912
3913
3914
3915
3916
3917
3918
3919
3920
3921
3922
3923
3924
3925
3926
3927
3928
3929
3930
3931
3932
3933
3934
3935
3936
3937
3938
3939
3940
3941
3942
3943
3944
3953
3954
3955
3956
3957
3958
3961
3964
3966
3968
4028
4029
4030
4031
4032
4033
4034
4035
4036
4038
4042
4046
4047
4048
4049
4050
4051
4052
4053
4087
4090
4092
4093
4094
4095
4096
4097
4098
4099
4101
4102
4103
4120
4121
4122
4124
4125
4135
4146
4151
4152
4153
4154
4155
4156
4157
4158
4164
4165
4207
4208
4233
4253
4256
4261
4262
4263
4278
4279
4288
4289
4342
4343
4515
4539
4595
4596
4707
4709
4710
4712
4716
4717
4719
4720
4721
4799
5075
5076
5079
5081
5086
5091
5127
5128
5129
5130
5155
5156
5157
5158
5159
5160
5161
5162
5163
5164
5165
5166
5167
5168
5169
5170
5171
5173
5174
5175
5176
5177
5178
5179
5180
5181
5182
5183
5184
5185
5186
5187
5188
5189
5190
5191
5192
5194
5195
5196
5197
5198
5199
5200
5201
5202
5203
5204
5205
5206
5207
5210
5211
5212
5213
5214
5215
5216
5217
5220
5221
5222
5223
5224
5225
5226
5227
5228
5229
5547
5548
5549
5550
5551
5552
5553
5554
5555
5556
5557
5558
5559
5560
5561
5562
5563
5564
5565
5566
5567
5568
5569
5570
5571
5572
5573
5574
5575
5576
5577
5578
5579
5580
5581
5582
5583
5584
5585
5586
5587
5588
5589
5590
5591
5592
5593
5594
5595
5596
5598
5599
5600
5601
5602
5603
5604
5605
5607
5608
5609
5610
5611
5613
5614
5615
5616
5617
5618
5619
5620
5622
5623
5624
5625
5626
5628
5629
5630
5631
5632
5634
5635
5637
5638
5639
5640
5641
5643
5644
5645
5646
5647
5650
5652
5653
5654
5655
5656
5657
5658
5660
5661
5662
5663
5664
5665
5666
5667
5668
5669
5670
5671
5672
5673
5675
5676
5677
5678
5679
5680
5682
5683
5684
5685
5686
5689
5690
5691
5693
5694
5695
5696
5697
5700
5701
5702
5703
5704
5705
5707
5708
5709
5710
5711
5713
5714
5715
5716
5717
5718
5719
5720
5721
5722
5723
5725
5726
5727
5728
5729
5731
5732
5733
5734
5735
5736
5737
5738
5740
5741
5743
5744
5745
5746
5747
5748
5749
5750
5752
5753
5754
5755
5756
5757
5758
5759
5760
5761
5762
5763
5764
5765
5766
5767
5768
5772
5773
5774
5775
5776
5777
5778
5779
5780
5781
5782
5783
5796
5797
5798
5799
5800
5801
5802
5803
5804
5805
5806
5807
5808
5809
5810
5812
5813
5814
5815
5818
5819
5820
5824
5825
5826
5827
5828
5844
5845
5846
5847
5848
5849
5850
5851
5852
5853
5854
5855
5856
5857
5858
5859
5860
5861
5862
5863
5864
5869
5870
5871
5872
5873
5874
5875
5876
5877
5878
5879
5880
5883
5884
5885
5886
5887
5888
5889
5890
5891
5892
5893
5894
5900
5901
5902
5903
5904
5905
5908
5909
5910
5911
5912
5913
5916
5917
5918
5919
5920
5921
5922
5923
5924
5925
5926
5927
5928
5929
5930
5931
5932
5933
5934
5935
5936
5960
5961
5962
6039
6040
6041
6042
6043
6044
6045
6046
6047
6048
6049
6050
6051
6052
6053
6054
6055
6056
6060
6062
6066
6068
6069
6070
6071
6072
6073
6074
6078
6080
6084
6086
6087
6088
6089
6090
6091
6092
6094
6096
6099
6100
6105
6106
6107
6108
6150
6156
6161
6162
6176
6182
6183
6187
6188
6189
8289
8290
8291
8317
8318
8319
8320
8321
8322
8323
8324
8325
8326
8327
8328
8329
8330
8331
8332
8333
8334
8335
8336
8337
8338
8339
8340
8341
8342
8343
8344
8345
8346
8347
8348
8349
8350
8351
8352
8353
8354
8355
8356
8357
8358
8359
8360
8361
8362
8363
8364
8365
8366
8367
8368
8369
8370
8371
8372
8373
8374
8375
8376
8377
8378
8379
8380
8381
8382
8383
8384
8385
8390
8395
8441
8447
8448
8449
8450
8454
8455
8456
8457
8461
8469
8497
8498
8499
8500
8501
8502
8504
8506
8507
8508
8511
8512
8513
8514
8517
8518
8519
8520
8668
8669
8670
8671
8672
8673
8674
8675
8676
8677
8678
8679
8680
8681
8682
8683
8684
8685
8686
8687
8688
8689
8690
8691
8692
8693
8694
8695
8696
8697
8698
8699
8700
8701
8702
8703
8704
8705
8706
8707
8708
8709
8710
8711
8712
8713
8714
8715
8716
8717
8718
8719
8720
8721
8722
8723
8724
8725
8726
8727
8728
8729
8730
8731
8732
8733
8734
8735
8736
8737
8738
8739
8740
8741
8742
8743
8744
8745
8746
8747
8748
8749
8750
8751
8753
8754
8756
8757
8758
8759
8760
8762
8763
8764
8765
8766
8768
8769
8771
8772
8773
8774
8775
8776
8778
8779
8780
8781
8782
8783
8784
8789
8790
8791
8792
8793
8794
8799
8800
8801
8802
8803
8804
8805
8806
8807
8808
8809
8810
8811
8812
8813
8814
8815
8817
8818
8819
8820
8821
8822
8823
8824
8825
8826
8827
8828
8829
8830
8831
8832
8833
8834
8835
8836
8837
8838
8839
8841
8842
8843
8844
8845
8846
8847
8848
8849
8850
8851
8852
8853
8854
8855
8856
8857
8858
8859
8860
8861
8862
8863
8880
8881
8882
8883
8888
8889
8890
8891
8892
8893
8894
8895
8896
8897
8898
8900
8901
8902
8903
8904
8906
8907
8908
8909
8910
8911
8912
8913
8914
8915
8916
8918
8919
8920
8921
8922
8923
8924
8925
8927
8928
8929
8930
8931
8934
8935
8936
8937
8938
8939
8940
8941
8942
8943
8944
8945
8946
8947
8948
8950
8951
8952
8953
8954
8955
8956
8957
8958
8962
8963
8964
8965
8966
8967
8968
8969
8970
8971
8972
8973
8974
8975
8977
8978
8980
8981
8982
8983
8984
8985
8986
8987
8988
8989
8990
8991
8992
8994
8995
8996
8997
8999
9000
9002
9003
9007
9008
9010
9011
9013
9014
9016
9017
9019
9020
9024
9027
9028
9030
9031
9033
9034
9035
9036
9044
9046
9047
9048
9049
9050
9051
9052
9053
9054
9055
9056
9057
9058
9059
9060
9061
9062
9063
9064
9065
9066
9070
9071
9072
9073
9074
9075
9076
9077
9078
9079
9080
9081
9082
9083
9084
9085
9086
9087
9088
9089
9090
9095
9096
9097
9098
9099
9100
9101
9102
9103
9104
9105
9106
9107
9108
9109
9110
9111
9112
9117
9118
9119
9120
9121
9122
9123
9125
9126
9127
9128
9129
9130
9131
9132
9133
9134
9135
9136
9137
9138
9139
9140
9141
9142
9143
9144
9145
9146
9147
9148
9149
9150
9151
9152
9153
9154
9155
9156
9161
9162
9163
9164
9165
9166
9167
9168
9169
9170
9171
9172
9175
9176
9177
9178
9179
9180
9243
10189
10201
10202
10213
10214
10218
10219
10220
10221
10227
10228
10229
10234
10235
10236
10237
10238
10239
10240
10241
10245
10246
10249
10253
10254
10255
10256
10257
10265
10267
10270
10271
10273
10278
10279
10280
10281
10282
10283
10284
10285
10286
10287
10288
10289
10290
10291
10292
10293
10294
10295
10296
10297
10298
10299
10300
10301
10302
10303
10304
10305
10306
10307
10314
10315
10316
10329
10330
10331
10332
10342
10354
10355
10356
10359
10361
10362
10363
10364
10391
10392
10393
10394
10395
10400
10401
10402
10403
10406
10407
10408
10409
10410
10411
10412
10413
10414
10415
10416
10417
10424
10425
10442
10443
10444
10445
10446
10447
10448
10449
10454
10455
10456
10457
10458
10459
10460
10461
10462
10463
10464
10465
10479
10494
10495
10496
10499
10502
10503
10505
10528
10529
10538
10539
10540
10541
10542
10543
10544
10545
10617
10637
10640
10642
10645
10646
10647
10648
10674
10675
10676
10677
10680
10681
10682
10683
10684
10685
10686
10687
10688
10689
10690
10691
10803
10808
10809
10810
10811
10812
10813
10814
10815
10816
10817
10830
10831
10833
10836
10837
10838
10839
10840
10841
10842
10843
10844
10845
10846
10847
10848
10849
10850
10851
10852
10853
10854
10856
10857
10858
10859
10860
10861
10862
10863
10864
10865
10866
10867
10874
10875
10877
10928
10930
10931
10936
10937
10938
10940
10941
10942
10943
10946
10948
10949
10950
10951
10952
10953
10954
10955
10956
10957
10958
10959
10960
10961
10962
10963
10969
10989
11031
11035
11036
11037
11038
11111
11112
11113
11114
11115
11116
11120
11121
11122
11123
11124
11125
11126
11128
11197
11224
11236
11237
11238
11239
11308
11310
11348
)


545
(
3391
3392
3393
3394
3447
3448
3452
3457
3458
3459
3460
3461
3462
3463
3464
3465
3466
3467
3468
3470
3473
3475
3476
3477
3478
3481
3484
3487
3490
3493
3495
3497
3500
3503
3506
3515
4539
4595
4596
4709
4710
4719
5091
5127
5129
5155
5156
5157
5158
5159
5160
5161
5162
5163
5164
5165
5166
5167
5168
5169
5170
5171
5173
5174
5175
5176
5177
5178
5179
5180
5181
5182
5183
5184
5185
5186
5187
5188
5189
5190
5191
5192
5194
5195
5196
5197
5198
5199
5200
5201
5202
5203
5204
5205
5206
5207
5210
5211
5212
5213
5214
5215
5216
5217
5220
5221
5222
5223
5224
5225
5226
5227
5228
5229
5547
5548
5549
5550
5551
5552
5553
5554
5555
5556
5557
5558
5559
5560
5561
5562
5563
5564
5565
5566
5567
5568
5569
5570
5571
5572
5573
5574
5575
5576
5577
5578
5579
5580
5581
5582
5583
5584
5585
5586
5587
5588
5589
5590
5591
5592
5593
5594
5595
5596
5598
5599
5600
5601
5602
5603
5604
5605
5607
5608
5609
5610
5611
5613
5614
5615
5616
5617
5618
5619
5620
5622
5623
5624
5625
5626
5628
5629
5630
5631
5632
5634
5635
5637
5638
5639
5640
5641
5643
5644
5645
5646
5647
5650
5652
5653
5654
5655
5656
5657
5658
5660
5661
5662
5663
5664
5665
5666
5667
5668
5669
5670
5671
5672
5673
5675
5676
5677
5678
5679
5680
5682
5683
5684
5685
5686
5689
5690
5691
5693
5694
5695
5696
5697
5700
5701
5702
5703
5704
5705
5707
5708
5709
5710
5711
5713
5714
5715
5716
5717
5718
5719
5720
5721
5722
5723
5725
5726
5727
5728
5729
5731
5732
5733
5734
5735
5736
5737
5738
5740
5741
5743
5744
5745
5746
5747
5748
5749
5750
5752
5753
5754
5755
5756
5757
5758
5759
5760
5761
5762
5763
5764
5765
5766
5767
5768
5772
5773
5774
5775
5776
5777
5778
5779
5780
5781
5782
5783
5796
5797
5798
5799
5800
5801
5802
5803
5804
5805
5806
5807
5808
5809
5810
5812
5813
5814
5815
5818
5819
5820
5824
5825
5826
5827
5828
5844
5845
5846
5847
5848
5849
5850
5851
5852
5853
5854
5855
5856
5857
5858
5859
5860
5861
5862
5863
5864
5869
5870
5871
5872
5873
5874
5875
5876
5877
5878
5879
5880
5883
5884
5885
5886
5887
5888
5889
5890
5891
5892
5893
5894
5900
5901
5902
5903
5904
5905
5908
5909
5910
5911
5912
5913
5916
5917
5918
5919
5920
5921
5922
5923
5924
5925
5926
5927
5928
5929
5930
5931
5932
5933
5934
5935
5936
5962
6039
6041
6042
6043
6044
6046
6047
6048
6049
6050
6051
6052
6056
6099
8289
8290
8291
8317
8320
8323
8324
8325
8326
8327
8328
8329
8330
8331
8332
8333
8334
8335
8336
8337
8338
8339
8340
8341
8342
8343
8344
8345
8346
8347
8348
8349
8350
8351
8352
8353
8354
8355
8356
8357
8358
8359
8360
8361
8362
8363
8364
8365
8366
8367
8368
8369
8370
8371
8372
8373
8374
8375
8376
8377
8378
8379
8380
8381
8382
8383
8384
8385
8686
8687
8688
8689
8690
8691
8695
8698
8699
8700
8703
8704
8714
8746
8748
8773
8778
8953
8954
8955
8973
8975
8980
8981
8982
8983
8984
8994
8995
8996
8997
9035
9104
9105
9106
)


568
(
3391
3392
3393
3394
3447
3448
3452
3453
3457
3458
3459
3460
3461
3462
3463
3464
3465
3466
3467
3468
3470
3473
3475
3476
3477
3478
3481
3483
3484
3487
3490
3491
3492
3493
3494
3495
3497
3500
3503
3504
3505
3506
3515
3516
3517
3621
4539
4595
4596
4709
4710
4719
5091
5127
5129
5155
5156
5157
5158
5159
5160
5161
5162
5163
5164
5165
5166
5167
5168
5169
5170
5171
5173
5174
5175
5176
5177
5178
5179
5180
5181
5182
5183
5184
5185
5186
5187
5188
5189
5190
5191
5192
5194
5195
5196
5197
5198
5199
5200
5201
5202
5203
5204
5205
5206
5207
5210
5211
5212
5213
5214
5215
5216
5217
5220
5221
5222
5223
5224
5225
5226
5227
5228
5229
5547
5548
5549
5550
5551
5552
5553
5554
5555
5556
5557
5558
5559
5560
5561
5562
5563
5564
5565
5566
5567
5568
5569
5570
5571
5572
5573
5574
5575
5576
5577
5578
5579
5580
5581
5582
5583
5584
5585
5586
5587
5588
5589
5590
5591
5592
5593
5594
5595
5596
5598
5599
5600
5601
5602
5603
5604
5605
5607
5608
5609
5610
5611
5613
5614
5615
5616
5617
5618
5619
5620
5622
5623
5624
5625
5626
5628
5629
5630
5631
5632
5634
5635
5637
5638
5639
5640
5641
5643
5644
5645
5646
5647
5650
5652
5653
5654
5655
5656
5657
5658
5660
5661
5662
5663
5664
5665
5666
5667
5668
5669
5670
5671
5672
5673
5675
5676
5677
5678
5679
5680
5682
5683
5684
5685
5686
5689
5690
5691
5693
5694
5695
5696
5697
5700
5701
5702
5703
5704
5705
5707
5708
5709
5710
5711
5713
5714
5715
5716
5717
5718
5719
5720
5721
5722
5723
5725
5726
5727
5728
5729
5731
5732
5733
5734
5735
5736
5737
5738
5740
5741
5743
5744
5745
5746
5747
5748
5749
5750
5752
5753
5754
5755
5756
5757
5758
5759
5760
5761
5762
5763
5764
5765
5766
5767
5768
5772
5773
5774
5775
5776
5777
5778
5779
5780
5781
5782
5783
5796
5797
5798
5799
5800
5801
5802
5803
5804
5805
5806
5807
5808
5809
5810
5812
5813
5814
5815
5818
5819
5820
5824
5825
5826
5827
5828
5844
5845
5846
5847
5848
5849
5850
5851
5852
5853
5854
5855
5856
5857
5858
5859
5860
5861
5862
5863
5864
5869
5870
5871
5872
5873
5874
5875
5876
5877
5878
5879
5880
5883
5884
5885
5886
5887
5888
5889
5890
5891
5892
5893
5894
5900
5901
5902
5903
5904
5905
5908
5909
5910
5911
5912
5913
5916
5917
5918
5919
5920
5921
5922
5923
5924
5925
5926
5927
5928
5929
5930
5931
5932
5933
5934
5935
5936
5960
5962
6039
6041
6042
6043
6044
6046
6047
6048
6049
6050
6051
6052
6054
6056
6066
6068
6099
8289
8290
8291
8317
8319
8320
8323
8324
8325
8326
8327
8328
8329
8330
8331
8332
8333
8334
8335
8336
8337
8338
8339
8340
8341
8342
8343
8344
8345
8346
8347
8348
8349
8350
8351
8352
8353
8354
8355
8356
8357
8358
8359
8360
8361
8362
8363
8364
8365
8366
8367
8368
8369
8370
8371
8372
8373
8374
8375
8376
8377
8378
8379
8380
8381
8382
8383
8384
8385
8686
8687
8688
8689
8690
8691
8695
8698
8699
8700
8703
8704
8714
8746
8748
8773
8778
8940
8942
8953
8954
8955
8969
8971
8972
8973
8975
8977
8980
8981
8982
8983
8984
8994
8995
8996
8997
9035
9098
9103
9104
9105
9106
)


1026
(
3391
3392
3393
3394
3447
3448
3452
3457
3458
3459
3460
3461
3462
3463
3464
3465
3466
3467
3468
3470
3473
3475
3478
3481
3484
3487
3490
3495
3497
3500
3503
3506
4539
4595
4709
4710
4719
5091
5127
5129
5130
5155
5156
5157
5158
5159
5160
5161
5162
5163
5164
5165
5166
5167
5168
5169
5170
5171
5173
5174
5175
5176
5177
5178
5179
5180
5181
5182
5183
5184
5185
5186
5187
5188
5189
5190
5191
5192
5194
5195
5196
5197
5198
5199
5200
5201
5202
5203
5204
5205
5206
5207
5210
5211
5212
5213
5214
5215
5216
5217
5220
5221
5222
5223
5224
5225
5226
5227
5228
5229
5547
5548
5549
5550
5551
5552
5553
5554
5555
5556
5557
5558
5559
5560
5561
5562
5563
5564
5565
5566
5567
5568
5569
5570
5571
5572
5573
5574
5575
5576
5577
5578
5579
5580
5581
5582
5583
5584
5585
5586
5587
5588
5589
5590
5591
5592
5593
5594
5595
5596
5598
5599
5600
5601
5602
5603
5604
5605
5607
5608
5609
5610
5611
5613
5614
5615
5616
5617
5618
5619
5620
5622
5623
5624
5625
5626
5628
5629
5630
5631
5632
5634
5635
5637
5638
5639
5640
5641
5643
5644
5645
5646
5647
5650
5652
5653
5654
5655
5656
5657
5658
5660
5661
5662
5663
5664
5665
5666
5667
5668
5669
5670
5671
5672
5673
5675
5676
5677
5678
5679
5680
5682
5683
5684
5685
5686
5689
5690
5691
5693
5694
5695
5696
5697
5700
5701
5702
5703
5704
5705
5707
5708
5709
5710
5711
5713
5714
5715
5716
5717
5718
5719
5720
5721
5722
5723
5725
5726
5727
5728
5729
5731
5732
5733
5734
5735
5736
5737
5738
5740
5741
5743
5744
5745
5746
5747
5748
5749
5750
5752
5753
5754
5755
5756
5757
5758
5759
5760
5761
5762
5763
5764
5765
5766
5767
5768
5772
5773
5774
5775
5776
5777
5778
5779
5780
5781
5782
5783
5796
5797
5798
5799
5800
5801
5802
5803
5804
5805
5806
5807
5808
5809
5810
5812
5813
5814
5815
5818
5819
5820
5824
5825
5826
5827
5828
5844
5845
5846
5847
5848
5849
5850
5851
5852
5853
5854
5855
5856
5857
5858
5859
5860
5861
5862
5863
5864
5869
5870
5871
5872
5873
5874
5875
5876
5877
5878
5879
5880
5883
5884
5885
5886
5887
5888
5889
5890
5891
5892
5893
5894
5900
5901
5902
5903
5904
5905
5908
5909