/*--------------------------------*- C++ -*----------------------------------*\
  =========                 |
  \\      /  F ield         | OpenFOAM: The Open Source CFD Toolbox
   \\    /   O peration     | Website:  https://openfoam.org
    \\  /    A nd           | Version:  8
     \\/     M anipulation  |
\*---------------------------------------------------------------------------*/
/*   Windows 32 and 64 bit porting by blueCAPE: http://www.bluecape.com.pt   *\
|  Based on Windows porting (2.0.x v4) by Symscape: http://www.symscape.com   |
\*---------------------------------------------------------------------------*/
FoamFile
{
    version     2.0;
    format      ascii;
    class       scalarListList;
    location    "constant/vegetation";
    object      kcLAIboundary;
}
// * * * * * * * * * * * * * * * * * * * * * * * * * * * * * * * * * * * * * //


5
(

871
(
0
0
0
0
0
0
0
0
0
0
0
0
0
0
0
0
0
0.50512661
0
0.41062334
0
0
0
0.52153713
0
0
0
0
0
0
0.047417486
0
1.5806018
0.66734208
0
0
0
0
0
0
0
0
0
0
0
0
0
0
0
0
0
0
0
0
0
0
0
0
0
0
0
0
0
0
0
0
0
0
0
0
0
0
0
0
0
0
0
0
0
0
0
0
0
0
0
0
0
0
0
0
0
0
0
0
0
0
0
0
0
0
0
0
0
0
0
0
0
0
0
0
0
0
0
0
0
0
0
0
0
0
0
0
0
0
0
0
0
0
0
0
0
0
0
0
0
0
0
0
0
0
0
0
0
0
0
0
0
0
0
0
0
0
0
0
0
0
0
0
0
0
0
0
0
0
0
0
0
0
0
0
0
0
0
0
0
0
0
0
0
0
0
0
0
0
0
0
0
0
0
0
0
0
0
0
0
0
0
0
0
0
0
0
0
0
0
0
0
0
0
0
0
0
0
0
0
0
0
0
0
0
0
0
0
0
0
0
0
0
0
0
0
0
0
0
0
0
0
0
0
0
0
0
0
0
0
0
0
0
0
0
0
0
0
0
0
0
0
0
0
0
0
0
0
0
0
0
0
0
0
0
0
0
0
0
0
0
0
0
0
0
0
0
0
0
0
0
0
0
0
0
0
0
0
0
0
0
0
0
0
0
0
0
0
0
0
0
0
0
0
0
0
0
0
0
0
0
0
0
0
0
0
0
0
0
0
0
0
0
0
0
0
0
0
0
0
0
0
0
0
0
0
0
0
0
0
0
0
0
0
0
0
0
0
0
0
0
0
0
0
0
0
0
0
0
0
0
0
0
0
0
0
0
0
0
0
0
0
0
0
0
0
0
0
0
0
0
0
0
0
0
0
0
0
0
0
0
0
0
0
0
0
0
0
0
0
0
0
0
0
0
0
0
0
0
0
0
0
0
0
0
0
0
0
0
0
0
0
0
0
0
0
0
0
0
0
0
0
0
0
0
0
0
0
0
0
0
0
0
0
0
0
0
0
0
0
0
0
0
0
0
0
0
0
0
0
0
0
0
0
0
0
0
0
0
0
0
0
0
0
0
0
0
0
0
0
0
0
0
0
0
0
0
0
0
0
0
0
0
0
0
0
0
0
0
0
0
0
0
0
0
0
0
0
0
0
0
0
0
0
0
0
0
0
0
0
0
0
0
0
0
0
0
0
0
0
0
0
0
0
0
0
0
0
0
0
0
0
0
0
0
0
0
0
0
0
0
0
0
0
0
0
0
0
0
0
0
0
0
0
0
0
0
0
0
0
0
0
0
0
0
0
0
0
0
0
0
0
0
0
0
0
0
0
0
0
0
0
0
0
0
0
0
0
0
0
0
0
0
0
0
0
0
0
0
0
0
0
0
0
0
0
0
0
0
0
0
0
0
0
0
0
0
0
0
0
0
0
0
0
0
0
0
0
0
0
0
0
0
0
0
0
0
0
0
0
0
0
0
0
0
0
0
0
0
0
0
0
0
0
0
0
0
0
0
0
0
0
0
0
0
0
0
0
0
0
0
0
0
0
0
0
0
0
0
0
0
0
0
0
0
0
0
0
0
0
0
0
0
0
0
0
0
0
0
0
0
0
0
0
0
0
0
0
0
0
0
0
0
0
0
0
0
0
0
0
0
0
0
0
0
0
0
0
0
0
0
0
0
0
0
0
0
0
0
0
0
0
0
0
0
0
0
0
0
0
0
0
0
0
0
0
0
0
0
0
0
0
0
0
0
0
0
0
0
0
0
0
0
0
0
0
0
0
0
0
0
0
0
0
0
0
0
0
0
0
0
0
0
0
0
0
0
0
0
0
0
0
0
0
0
0
0
0
0
0
0
0
0
0
0
0
0
0
0
0
0
0
0
0
0
0
0
0
0
0
0
0
0
0
0
0
0
0
0
0
0
0
0
0
0
0
0
0
0
0
0
0
0
0
0.19399799
0.78144487
)


871
(
0
0
0
0
0.0011273423
0.011538658
0
0
0.73732575
0
0
0
0
0
0
0.0038919914
0.29809286
1.0054344
0
1.7211462
0
0
0
1.5787765
0
0
0
0
0
0
0.044560323
0
1.8297566
1.193813
0
0
0
0
0
0
0.0029606724
0.28083431
0.32153959
0.098061261
0.15588501
0.16516556
0.0015500033
0.0034661006
0.00030007085
0.24233558
0.078940033
0.27540792
0.087557032
0.045906573
0.013710594
0.013042663
0.20610409
0.02106484
0.056380418
0.018584262
0.22295444
0.051645422
0.065492866
0.042584953
0
0
0
0
0
0
0
0
0
0
0
0
0
0
0
0
0
0.0023857097
0.00085417491
0.00028003408
0
0
0
0
0
0
0
0
0
0
0
0
0
0
0
0
0
0
0.0021695249
0
0
0
0
0
0
0
0
0
0
0
0
0
0
0.056918188
0.080552578
0
0
0
0
0
0
0
0
0.0067451735
0.007591324
0
0
0
0
0
0
0
0
0
0
0.037407929
0.036044695
0.024865385
0.068214758
0.062734635
0.054646601
0
0
0.0021012512
0.019621092
0
0.0018113021
0.0085229193
0.013740543
0
0
0
0
0
0
0
0
0
0
0
0
0
0
0.012981707
0
0
0
0
0
0
0
0
0
0.0089829139
0.012656968
0.036467954
0.018271713
0
0.0067068338
0
0.033252211
0
0
0
0
0
0
0
0
0
0
0
0
0
0
0
0
0
0
0
0
0
0
0
0
0
0
0
0
0.0053685305
0
0
0
0
0
0
0.0018871784
0.0040919438
0.01182157
0.03384867
0.017570357
0
0
0
0.0010164981
0.0031677659
0
0.0087669973
0
0.02879466
0
0
0
0
0
0
0
0
0
0
0
0
0
0
0
0
0
0
0
0
0
0
0
0
0
0
0
0
0
0
0
0
0
0
0
0
0.0030785496
0
0
0
0
0
0
0
0
0
0.0011742226
0.0039186539
0.0063638205
0.010684055
0.0081675087
0.011902991
0
0
0.0047618993
0.0038606116
0
0.00044555169
0
0
0
0
0
0
0
0
0
0
0
0
0
0
0
0
0
0
0
0
0
0
0
0
0
0
0
0
0
0
0
0
0
0
0
0
0
0
0
0
0
0
0.007948218
0
0
0
0
0
0
0
0
0
0
0.030228639
0.024166584
0.027387253
0.021334845
0
0
0
0
0
0
0
0
0
0
0
0
0
0
0
0
0
0
0
0
0
0
0
0
0
0
0
0
0
0
0.00042716545
0
0
0
0
0
0
0.014351956
0.014356656
0.01628871
0.022905335
0.0051680656
0.010762294
0.0010011358
0
0
0
0
0
0
0
0
0
0
0
0
0
0
0
0
0
0
0
0
0
0
0
0
0.02842629
0.028345052
0
0
0
0
0.023505672
0.024242895
0.018020842
0
0
0
0
0
0
0
0
0
0
0
0
0
0
0
0
0
0
0
0
0
0
0
0
0
0
0
0
0
0
0
0
0
0
0
0
0
0
0
0
0
0
0
0
0
0
0
0
0
0
0
0
0
0
0
0
0
0
0
0
0
0
0
0
0
0
0
0
0
0
0
0
0
0
0
0
0
0
0
0
0
0
0
0
0
0
0
0
0
0
0
0
0
0
0
0.0045115135
0.00074766932
0.00045470461
0
0
0
0
0
0
0.0017378211
0.00053816246
0
0
0
0
0
0
0
0
0
0
0
0
0
0
0
0
0
0
0
0
0
0
0
0
0
0
0
0
0
0
0
0
0
0
0
0
0
0
0
0
0
0
0
0
0
0
0
0
0
0
0
0
0
0
0
0
0
0
0.0044381013
0
0
0
0
0.00010408708
0.0074556557
0.0080432308
0
0
0
0
0
0
0
0
0
0.0026662971
3.7055726e-05
0
0
0
0
0
0
0
0
0
0
0
0
0
0
0
0
0
0
0
0
0
0
0
0
0
0
0
0
0
0
0
0
0
0
0
0
0
0
0
0
0
0
0
0
0
0
0
0
0
0
0
0
0
0
0
0
0
0
0
0
0
0
0
0
0
0
0
0
0
0
0
0
0
0
0
0
0
0
0
0
0
0
0
0
0
0
0
0
0
0
0
0
0
0
0
0
0
0
0
0
0
0
0
0
0
0
0
0
0
0
0
0
0
0
0
0
0
0
0
0
0
0
0
0
0
0
0
0
0
0
0
0
0
0
0
0
0
0
0
0
0
0
0
0
0
0
0
0
0
0
0
0
0
0
0
0
0
0
0
0
0
0
0
0
0
0
0
0
0
0
0
0
0
0
0
0
0
0
0
0
0
0.018055934
0.021086177
0
0
0
0
0
0
0
0
0
0
0
0
0.0063891566
0.0017173678
0
0
0
0
0
0
0
0
0
0
0
0
0
0
0
0
0
0
0
0
0
0
0
0
0
0
0
0
0
0
0
0
0
0
0
0
0
0
0
0
0
0
0
0.026027564
0
0
0.019481766
0.014800553
0
0
0
0
0
0
0
0
0
0
0
0
0
0
0
0.33825445
1.1524192
)


871
(
0
0
0
0
0.10972561
0.57475234
0
0
1.8473901
0
0
0
0
0
0
0.15244144
1.3509999
0.8136524
0
1.8723261
0
0
0
1.9277379
0.029816706
0.018574942
0
0
0
0
0.22046994
0
1.5546161
1.1888335
0
0
0
0
0
0
0.18935667
1.3692959
1.2142774
0.80973783
0.98631505
0.67408978
0.14848466
0.38134786
0.14866917
1.3182275
0.92295946
1.0552963
0.80676594
0.58855363
0.58319252
0.53747319
1.1507248
0.70618652
0.8777643
0.66876378
0.89233368
0.39546797
0.7656193
0.36914869
0
0
0
0
0
0
0
0
0
0
0
0
0
0
0
0
0
0.28061908
0.10531478
0.082627294
0
0
0
0
0
0
0
0
0
0
0
0
0
0
0
0.047127973
0.0040462419
0.0048170357
0.27252502
0.057530953
0.0063379345
0.010572503
0
0
0
0
0
0
0
0
0
0.00063857602
0
0.98264687
0.68659937
0
0
0
0
0
0
0
0
0.4082586
0.40052056
0
0
0
0
0
0
0
0
0.0021423864
9.2201338e-05
0.84123117
0.94530623
0.80531581
0.55203642
0.6495141
0.51903474
0
0
0.047521911
0.27074981
0
0.014973079
0.031779278
0.19176565
0
0
0
0
0
0
0
0
0
0
0
0
0
0.11996507
0.45414789
0
0.0004933429
0.00018481637
0
0
0
0
0
0.08502629
0.15104279
0.34795298
0.75691683
0.58017881
0.00096167744
0.059630656
0.00044806328
0.65605899
0
0
0
0
0
0
0
0
0
0
0
0
0
0
0
0
0
0
0
0
0
0
0
0
0
0
0
0
0.027133917
0
0
0
0
0
0
0.070054036
0.076001293
0.19407391
0.5890977
0.45520197
0
0
0
0.0016182031
0.026074819
0
0.08104592
7.6054917e-05
0.50589033
0
0
0
0
0
0
0
0
0
0
0
0
0
0
0
0
0
0
0
0
0
0
0
0
0
0
0
0
0
0
0
0
0
0
0
0
0.22143689
0
0.00050694192
0
0
0
0
0
0
0
0.082536468
0.16414847
0.11016535
0.23030491
0.25016807
0.29640946
0.0013366359
0.0011251839
0.040880872
0.0012546667
0.0008060091
0.00080469806
0
0
0
0
0
0
0
0
0
0
0
0
0
0
0
0
0
0
0
0
0
0
0
0
0
0
0
0
0
0
0
0
0
0
0
0
0
0
0
0
0
0
0.33250432
0
0
1.4955646e-05
0.00036294265
0
0
0
0
0
0
0.84365418
0.71028194
0.55111651
0.432806
0
0
0
0
0
0
0
0
0
0
0
0
0
0
0
0
0
0
0
0
0
0
0
0
0
0
0
0
0
0
0
0
0
0
0
0
0
0.2958757
0.22943313
0.38399905
0.56615133
0.00053772278
0.10333589
0.0002602991
0
0
0
0
0
0
0
0
0
0
0
0
0
0
0
0
0
0
0
0
0
0
0
0
0.66450293
0.45930454
0
0
0
0
0.41690259
0.38919591
0.31880914
0
0
0
0
0
0
0
0
0
0
0
0
0
0
0
0
0
0
0
0
0
0
0
0
0
0
0
0
0
0
0
0
0
0
0
0
0
0
0
0
0
0
0
0
0
0
0
0
0.011004545
0
0
0
0
0
0
0
0
0
0
0
1.5537723e-05
0.003774932
0.00066654854
0.012632326
0.00055070295
0
0
0
0
0
0
0
0
0
0
0
0
0
0
0
0
0
0
0
0
0
0
0
0
0
0
0
0
0
0
0.11575439
0.020944814
0.037148071
7.7593397e-05
0.00038384063
0.0015969537
0
0
0
0.0023121654
0.0012309163
0.0011026346
0
0.0002242844
0
0
0
0
0
0
0
0
0
0
0
0
0
0
0
0
0
0
0
0
0
0
0
0
0
0
0
0
0.035616929
0.019831871
0
0
0
0
0.00015753074
0
0
0
0
0
0
0
0
0
0
0
0
0
0
0
0
0
0
0
0
0.1451454
0.040191949
0.043458754
0.00096406111
0.00068997962
0.014273677
0.16757513
0.21469483
0.025867726
0.007210199
0.024676273
0.0018367929
0.00056594503
0.00088097993
0.00089000576
0.0003414597
0.00072264815
0.0019722178
0.0013424613
0.00010772789
3.8766129e-05
0.00046188434
0
0
0
0
0
0
0
0
0
0
0
0
0
0
0
0
0
0
0
0
0
0
0
0
0
0
0
0
0
0
0
0
0
0
0
0
0
0
0
0
0
0
0
0
0
0
0
0
0
0
0
0
0
0
0
0
0
0
0
0
0
0
0
0
0
0
0
0
0
0
0
0
0
0
0
0
0
0
0
0
0
0
0
0
0
0
0
0
0
0
0
0
0
0
0
0
0
0
0
0
0
0
0
0
0
0
0
0
0
0
0
0
0
0
1.3253887e-05
0
0
0
0
0
0
0
0
0
5.2990862e-05
0.00011711725
0
0
0
0
0
0
0
0
0
0
0
0
0
0
0
0
0
0
0
0
0
0
0
0
0
0
0
0
0
0
0
0
0
0
0
0
0
0
0
0
0
0
0
0
0
0
0.00045089162
0.00011156438
0.00022944096
0.00021270386
0.00043070119
0.00025458526
0.36066311
0.47497928
0
0
0
0
0
0
0
0
0
0
0
0
0
0
0
0
0
0
0
0
0
0
0
0
0
0
0
0
0
0
0
0
0
0
0
0
0
0
0
0
0
0
0
0
0
0
0
0
0
0
0
0
0
0
0
0
0
0.51559551
0
0
0.30698668
0.22607957
0
0
0
0
0
0
0
0
0
0
0
0
0
0
0
0.36873276
1.5557736
)


871
(
0
0
0
0
0.64742429
1.2361352
0
0
1.6105013
0
0
0
0.077368377
0
0
0.37654109
1.8980459
0.47096714
0.0019325041
1.0237044
0
0
0
1.5118844
0.24117434
0.38559931
0
0.0012209808
0
0.042779483
0.15144944
0
1.1003223
0.81032315
0.0087131908
0
0
0
0
0
0.89569362
1.8112925
1.5579253
1.777963
1.8908546
0.74308205
0.7397927
1.1459498
0.67395665
1.8948922
1.5339442
1.3052737
1.245185
1.4520697
1.6512988
1.5923879
1.8955303
1.6636259
1.5021579
1.638965
1.0533396
0.47893727
1.208308
0.44871005
0
0
0.087323008
0
0.13459129
0
0
0.45100165
0
0
0.34215692
0
0
0
0
0
0
0.94647772
0.7137819
0.62786987
0.04159683
0
0
0
0
0
0.1834498
0.028590539
0.076105464
0
0
0
0
0
0
0.56921636
0.26962489
0.41509869
0.94278003
0.52179042
0.24072795
0.36290821
0
0
0
0
0
0
0
0
0.2394743
0.18431901
0.13714272
1.6829094
0.95892941
0
0
0
0
0
0
0
0
1.2381901
1.2559613
0
0
0
0
0
0
0.015270371
0.066426575
0.17803543
0.12066672
1.6727661
1.6599629
1.6491133
0.68879227
0.91698909
0.64694189
0
0
0.22817316
0.8014673
0.00014128503
0.13362776
0.34374117
0.35181074
0
0
0
0
0
0
0
0
0
0
0
0
0
0.58456614
1.5435451
0
0
0.00029331708
0
0
0
0
0
0.48428927
0.74144532
1.4595828
1.4143986
1.5724142
0.016102834
0.476567
0.058632976
1.1071156
0
0
0
0
0
0
0
0
0
0
0
0
0
0
0
0
0
0
0
0
0
0
0
0
0
0
0
6.6881803e-05
0.086283972
0
0
0
0
0
0
0.32385055
0.40901609
0.75803662
1.2859212
1.4739241
0
0.00063971685
0.00057890224
0.1048857
0.26092234
0.11245166
0.48583247
0.065381046
0.96106155
0
0
0
0
0
0
0
0
0
0
0
0
0
0
0
0
0
0
0
0
0
0
0
0
0
0
0
0
0
0
0
0
0
0
0
0
0.87755709
0
0
0
0
0
0
0
0
0
0.40430376
0.792098
0.60739412
1.0078337
1.1255979
1.26505
0.065707982
0.030804078
0.40067572
0.33749751
0.050018439
0.19816543
0
0
0
0
0
0
0
0
0
0
0
0
0
0
0
0
0
0
0
0
0
0
0
0
0
0
0
0
0
0
0
0
0
0
0
0
0
0
0
0
0
0
1.2022845
0
0.00011106012
0.0002148191
4.4185502e-06
0
0
0
0
0
0
1.5976951
1.5848538
0.80246894
0.53628505
0
0
0
0
0
0
0
0
0
0
0
0
0
0
0
0
0
0
0
0
0
0
0
0
0
0
0
0
0
0.00025920804
0.022267686
0
0
0
0
0
0
1.0268072
0.75863436
1.2849148
1.489477
0.34556732
0.49890667
0.20561437
0.069141128
0
0
0
0
0
0
0
0
0
0
0
0
0
0
0
0
0
0
0
0
0
0
0
1.5069421
1.1057209
0.00020497478
0
0.00040451709
0.00084728627
0.63799993
0.79984202
0.38664401
0
0
0
0
0
0
0
0
0
0
0
0
0
0
0
0
0
0
0
0
0
0
0
0
0
0
0
0
0
0
0
0
0
0
0
0
0
0
0.0015762338
0
0
0
0
0
0
0
0
0
0.20498654
0
0
0
0
0
0
0
0
0
0
0
0
0.14372759
0.033152097
0.15228744
0.028626683
0
0
0
0
0
0
0
0
0
0
0
0
0
0
0
0
0
0
0
0
0
0
0
0
0
0
0
0
0
0
0.55556729
0.10690415
0.17903357
0
0.020033982
0.091893605
0
0
0
0.19466846
0.063914029
0.052423347
0
0.013642513
0
0
0
0
0
0
0
0
0
0
0
0
0
0
0
0
0
0
0
0
0
0
0
0
0
0
0
0
0.40580113
0.27573528
0
0
0
0
0
0
0
0
0
0
0
0
0
0
0
0
0
0
0
0
0
0
0
0
0
0.68519062
0.27973374
0.2365768
0.048389257
0.037022796
0.10871581
0.80824081
0.98986532
0.2129605
0.097711202
0.16763182
0.11795296
0
0.030507219
0.045646443
0.013695491
0.032495334
0.29427106
0.17736785
0
0
0.0089173911
0
0
0
0
0
0
0
0
0
0
0
0
0
0
0
0
0
0
0
0
0
0
0
0
0
0
0
0
0
0
0
0
0
0
0
0
0
0
0
0
0
0
0
0
0
0
0
0
0
0
0
0
0
0
0
0
0
0
0
0
0
0
0
0
0
0
0
0
0
0
0
0
0
0
0
0
0
0
0
0
0
0
0
0
0
0
0
0
0
0
0
0
0
0
0
0
0
0
0
0
0
0
0
0
0
0
0
0
0
0
0
0
0
2.2159581e-05
2.5918715e-05
0
0
0
0
0
0
0
0
0
0.02685343
0.080516204
0
0
0
0
0
0
0
0
0
0
0
0
0
0
0
0
0
0
0
0
0
0
0
0
0
0
0
0
0
0
0
0
0
0
0
0
0
0
0
0
0
0
0
0
0
0
0.016215454
0.0091773915
0.0073751949
0.030530617
0.028753599
0
1.0371379
1.2921258
0
0
0
0
0
0
0
0.0010903503
0
0
0
0
0.35002408
0.21454583
0
0
0
0
0
0
0
0
0
0
0
0
0
0
0
0
0
0
0
0
0
0
0
0
0
0
0
0
0
0
0
0
0
0
0
0
0
0
0
0
0
0
0
1.3413861
0.00030289201
0.00057819018
0.45804185
0.24078072
0
0
0
0
0
0
0
0
0
0
0
0
0
0
0
0.56698076
1.6932286
)


871
(
0
0
0.75933007
0.63039927
1000
1000
0
0
1000
0.064299102
0.011201053
0.23364003
0.90255493
0
0
0.68144277
1000
1000
0.082620258
1000
0.060519679
0.49866341
0.46322019
1000
0.80802062
1000
0.14043545
0.28494207
0.090142668
0.95367167
0.74207009
0
1000
1000
0.28122196
0.39489312
0
0
0
0
1000
1000
1000
1000
1000
1000
1000
1000
1000
1000
1000
1000
1000
1000
1000
1000
1000
1000
1000
1000
1000
1000
1000
1000
1000
1000
1000
1000
1000
1000
1000
1000
1000
1000
1000
1000
1000
1000
1000
1000
1000
1000
1000
1000
1000
1000
1000
1000
1000
1000
1000
1000
1000
1000
1000
1000
1000
1000
1000
1000
1000
1000
1000
1000
1000
1000
1000
1000
1000
1000
1000
1000
1000
1000
1000
1000
1000
1000
1000
1000
1000
1000
1000
1000
1000
1000
1000
1000
1000
1000
1000
1000
1000
1000
1000
1000
1000
1000
1000
1000
1000
1000
1000
1000
1000
0.00073524617
0
0.88857068
1.0061742
0.0073711472
0.69318604
0.62367515
0.4860402
0
0
0
0
0
0
0
0
0
0
0
0
0
1000
1000
0.00086318359
0.048013213
0.086041663
0
0
0
0
0
1.1784432
1.388056
1.6367124
1000
1000
0.19248149
1.1484305
0.36309717
1000
0
0
0
0
0
0
0
0
0
0
0
0
0
0
0
0
0
0
0
0
0
0
0
0
0
0
0
0.0018122667
0.17085825
0.00089490848
0.010516803
0
0
0
0
1.0538732
1.106426
1.2914613
1.1309835
1.5654418
0.00060714152
0.031534254
0.075821811
0.4990115
0.88913955
0.29097535
1.0581094
0.32702296
0.89039759
0
0
0
0
0
0
0
0
0
0
0
0
0
0
0
0
0
0
0
0
0
0
0
0
0
0
0
0
0
0
0
0
0
0
0
0
1000
0.020544501
0.064761298
0
0
0
0
0
0
0
1.1174263
1.3799878
1.3392806
1.5851639
1.5997857
1.6115633
0.34031344
0.26357823
1.0984582
0.90774071
0.33844242
0.63862761
0
0
0
0
0
0
0
0
0
0
0
0
0
0
0
0
0
0
0
0
0
0
0
0
0
0
0
0
0
0
0
0
0
0
0
0
0
0
0
0
0
0
1000
0.00097332858
0.021028895
0.041090638
0.081430662
0
0
0
0
0
0
1000
1000
1000
1000
0
0
0
0
0
0
0
0
0
0
0
0
0
0
0
0
0
0
0
0
0
0
0
0
0
0
0
0
0
0.0071602891
0.061072167
0
0
0
0
0
0
1.4872611
1.1915316
1.5267518
1.4946047
0.82314704
0.97677345
0.57676093
0.29123557
0
0
0
0
0
0
0
0
0
0
0
0
0
0
0
0
0
0
0
0
0
0
0
1.3704064
1.0516313
0.019078743
0.0004016034
0.037454543
0.070942781
0.64929159
0.81459915
0.45363682
0
0
0
0
0
0
0
0
0
0
0
0
0
0
0
0
0
0
0
0
0
0
0
0
0
0
0
0
0
0
1000
1000
1000
1000
1000
1000
1000
1000
1000
1000
1000
1000
1000
1000
1000
1000
1000
1000
1000
1000
1000
1000
1000
1000
1000
1000
1000
1000
1000
1000
1000
1000
1000
1000
1000
1000
1000
1000
1000
1000
1000
1000
1000
1000
1000
1000
1000
1000
1000
1000
0.014659179
1000
1000
1000
1000
1000
1000
1000
1000
0
1000
1000
1000
1000
1000
1.2871277
1000
1000
1000
1000
1000
1000
1000
1000
0.67278851
1000
1000
1000
1000
1000
0
1000
1000
1000
1000
1000
0
1000
1000
0
1000
1000
1000
1000
1000
0
1000
1000
1000
1000
1000
0
0
1000
0
1000
1000
1000
1000
1000
1000
1000
0.028668972
1000
1000
1000
1000
1000
1000
1000
1000
1000
1000
1000
1000
1000
1000
0
1000
1000
1000
1000
1000
1000
1.3353521
1000
1000
1000
1000
1000
1.5376055
1.5703037
1000
1000
1000
0.46575404
1000
1000
1000
1000
1000
0.85834206
0.59880894
1000
1000
1000
1000
1000
1000
0
1000
1000
1000
1000
1000
0
1000
1000
1000
1000
1000
1000
1000
1000
1000
1000
1000
0
1000
1000
1000
1000
1000
0
1000
1000
1000
1000
1000
1000
1000
1000
0
1000
1000
0
1000
1000
1000
1000
1000
1000
1000
1000
0
1000
1000
1000
1000
1000
1000
1000
1000
1000
1000
1000
1000
1000
1000
1000
1000
1000
0
0
0
1000
1000
1000
1000
1000
1000
1000
1000
1000
1000
1000
1000
0
0
0
0
0
0
0
0
0
0
0
0
1000
1000
1000
1000
1000
1000
1000
1000
1000
1000
1000
1000
1000
1000
1000
0
1000
1000
1000
1000
0.019002089
0.037275794
1000
1000
1000
0
0
0
1000
1000
1000
1000
1000
0
0
0
0
0
0
0
0
0
0
0
0
0
0
0
1000
1000
1000
1000
1000
1000
1000
1000
1000
1000
1000
1000
1000
1000
1000
1000
1000
1000
1000
1000
1000
0
0
0
0
1000
1000
1000
1000
1000
1000
1000
1000
1000
1000
1000
1000
1.3880262
1.4330857
1000
1000
1000
1000
1000
1000
1000
1000
1000
1000
1000
1000
0.74236473
0.52505856
0
0
0
1000
1000
1000
1000
1000
1000
0
0
1000
1000
1000
1000
1000
1000
0
0
1000
1000
1000
1000
1000
1000
1000
1000
1000
1000
1000
1000
1000
1000
1000
1000
1000
1000
1000
1000
1000
0
0
0
1.3017934
0.017697173
0.0339539
0.55666253
0.39490427
0
0
0
0
0
0
0
0
0
0
0
0
0
0
0
0.70357783
1000
)

)


// ************************************************************************* //
