/*--------------------------------*- C++ -*----------------------------------*\
  =========                 |
  \\      /  F ield         | OpenFOAM: The Open Source CFD Toolbox
   \\    /   O peration     | Website:  https://openfoam.org
    \\  /    A nd           | Version:  8
     \\/     M anipulation  |
\*---------------------------------------------------------------------------*/
/*   Windows 32 and 64 bit porting by blueCAPE: http://www.bluecape.com.pt   *\
|  Based on Windows porting (2.0.x v4) by Symscape: http://www.symscape.com   |
\*---------------------------------------------------------------------------*/
FoamFile
{
    version     2.0;
    format      ascii;
    class       scalarListList;
    location    "constant/vegetation";
    object      skyViewCoeff;
}
// * * * * * * * * * * * * * * * * * * * * * * * * * * * * * * * * * * * * * //


5
(

871
(
0
188
188
188
188
188
188
188
188
188
188
188
188
188
188
188
188
188
188
188
188
188
188
188
188
188
188
188
188
188
188
188
188
188
188
188
0
0
0
0
94
94
94
94
94
94
94
94
94
94
94
94
94
94
94
94
94
94
94
94
94
94
94
94
94
94
94
94
94
94
94
94
94
94
94
94
94
94
94
94
94
94
94
94
94
94
94
94
94
94
94
94
94
94
94
94
94
94
94
94
94
94
94
94
94
94
94
94
94
94
94
94
94
94
94
94
94
94
94
94
94
94
94
94
94
94
94
94
94
94
94
94
94
94
94
94
94
94
94
94
94
94
94
94
94
94
94
94
94
94
94
94
94
188
188
188
188
188
94
188
188
188
188
188
94
188
94
94
94
94
94
188
188
94
94
94
94
94
94
94
94
94
94
94
94
188
188
188
188
188
188
188
188
94
188
188
188
188
188
188
188
94
188
94
188
188
188
188
188
94
94
188
94
94
94
94
94
94
188
188
94
94
94
94
94
94
94
94
94
94
94
94
94
94
188
188
188
188
188
188
188
188
188
188
188
188
188
94
188
188
188
188
188
188
188
188
188
188
188
188
188
188
188
94
94
94
94
188
188
188
94
94
94
188
188
188
188
188
94
94
94
94
94
94
94
94
94
94
94
94
94
94
188
188
188
188
188
188
188
188
94
94
188
188
188
188
188
188
188
188
188
94
188
188
188
94
188
188
188
188
94
188
188
188
94
188
188
188
188
188
188
188
188
188
94
94
94
94
94
188
188
94
94
94
94
94
94
94
94
188
188
188
188
188
188
188
188
94
94
94
188
188
188
188
188
188
188
188
94
94
188
188
188
188
94
94
94
94
94
94
188
188
188
188
188
188
94
94
94
94
94
94
94
94
188
188
188
188
188
188
188
188
188
188
188
188
188
188
188
188
188
188
188
188
188
188
188
94
94
94
94
94
94
94
94
94
188
188
188
188
188
188
94
94
94
188
188
188
188
188
188
188
188
188
188
94
94
94
94
94
94
188
188
188
188
188
94
94
94
94
94
94
94
94
94
94
94
94
94
94
94
94
94
94
94
94
94
94
94
94
94
94
94
94
94
94
94
94
94
94
94
94
94
94
94
94
94
94
94
94
94
94
94
94
94
94
94
94
94
94
94
94
94
94
94
94
94
94
94
94
94
94
94
94
94
94
94
94
94
94
94
94
94
94
94
94
188
94
94
94
94
94
188
94
94
188
94
94
94
94
94
188
94
94
94
94
94
188
94
94
188
94
94
94
94
94
94
94
94
94
94
94
94
94
94
94
94
94
94
94
94
94
94
94
94
94
94
94
94
94
94
94
94
94
94
94
94
94
94
94
94
94
94
94
94
94
94
94
94
94
94
94
94
94
94
188
94
94
94
94
94
188
94
94
94
94
94
94
94
94
94
94
94
188
94
94
94
94
94
188
94
94
94
94
94
94
94
94
94
94
94
188
94
94
94
94
94
94
94
94
188
94
94
94
94
94
94
94
94
94
94
94
94
94
94
94
94
94
188
94
188
94
94
94
94
94
94
94
94
94
94
94
94
188
94
188
188
94
188
188
94
188
188
94
188
94
94
94
94
94
94
94
94
94
94
94
94
94
94
94
188
94
94
94
94
94
94
94
94
94
188
94
94
94
94
94
94
94
188
188
188
188
94
94
188
188
188
188
94
188
188
94
94
94
94
94
94
94
94
94
94
94
94
94
94
94
94
94
94
94
94
94
94
94
188
188
188
188
94
94
94
94
94
94
94
94
94
94
94
94
94
94
94
94
94
94
94
94
94
94
94
94
94
94
94
94
188
188
188
94
94
94
94
94
94
188
188
94
94
94
94
94
94
188
188
94
94
94
94
94
94
94
94
94
94
94
94
94
94
94
94
94
94
94
94
94
188
188
188
94
94
94
94
94
188
188
188
94
94
188
188
188
188
188
94
94
94
188
188
114.54323
105.54541
)


871
(
0
227
227
227
227
227
227
227
227
227
227
227
227
227
227
227
227
227
227
227
227
227
227
227
227
227
227
227
227
227
227
227
227
227
227
227
0
0
0
0
113.5
113.5
113.5
113.5
113.5
113.5
113.5
113.5
113.5
113.5
113.5
113.5
113.5
113.5
113.5
113.5
113.5
113.5
113.5
113.5
113.5
113.5
113.5
113.5
113.5
113.5
113.5
113.5
113.5
113.5
113.5
113.5
113.5
113.5
113.5
113.5
113.5
113.5
113.5
113.5
113.5
113.5
113.5
113.5
113.5
113.5
113.5
113.5
113.5
113.5
113.5
113.5
113.5
113.5
113.5
113.5
113.5
113.5
113.5
113.5
113.5
113.5
113.5
113.5
113.5
113.5
113.5
113.5
113.5
113.5
113.5
113.5
113.5
113.5
113.5
113.5
113.5
113.5
113.5
113.5
113.5
113.5
113.5
113.5
113.5
113.5
113.5
113.5
113.5
113.5
113.5
113.5
113.5
113.5
113.5
113.5
113.5
113.5
113.5
113.5
113.5
113.5
113.5
113.5
113.5
113.5
113.5
113.5
113.5
113.5
113.5
113.5
113.5
227
226.99999
227
227
227
113.5
227
226.99999
226.99999
227
227
113.5
226.99999
113.5
113.5
113.5
113.5
113.5
227
227
113.5
113.5
113.5
113.5
113.5
113.5
113.5
113.5
113.5
113.5
113.5
113.5
226.99999
226.99999
226.99999
227
226.99999
226.99999
226.99999
226.99999
113.5
226.99999
226.99999
226.99999
226.99999
226.99999
226.99999
226.99999
113.5
226.99999
113.5
226.99999
226.99999
226.99999
226.99999
226.99999
113.5
113.5
226.99999
113.5
113.5
113.5
113.5
113.5
113.5
227
227
113.5
113.5
113.5
113.5
113.5
113.5
113.5
113.5
113.5
113.5
113.5
113.5
113.5
113.5
227
226.99999
226.99999
226.99999
226.99999
226.99999
226.99999
226.99999
226.99999
226.99999
226.99999
227
226.99999
113.5
227
226.99999
226.99999
227
226.99999
226.99999
226.99999
226.99999
226.99999
227
226.99999
226.99999
226.99999
226.99999
226.99999
113.5
113.5
113.5
113.5
226.99999
226.99999
226.99999
113.5
113.5
113.5
227
226.99999
226.99999
227
226.99999
113.5
113.5
113.5
113.5
113.5
113.5
113.5
113.5
113.5
113.5
113.5
113.5
113.5
113.5
226.99999
226.99999
226.99999
226.99999
226.99999
226.99999
226.99999
226.99999
113.5
113.5
226.99999
226.99999
226.99999
226.99999
227
226.99999
226.99999
227
226.99999
113.5
226.99999
226.99999
226.99999
113.5
226.99999
226.99999
226.99999
226.99999
113.5
226.99999
226.99999
226.99999
113.5
226.99999
226.99999
226.99999
226.99999
226.99999
226.99999
226.99999
227
226.99999
113.5
113.5
113.5
113.5
113.5
227
226.99999
113.5
113.5
113.5
113.5
113.5
113.5
113.5
113.5
226.99999
226.99999
226.99999
226.99999
227
226.99999
227
226.99999
113.5
113.5
113.5
226.99999
226.99999
226.99999
226.99999
226.99999
226.99999
226.99999
226.99999
113.5
113.5
226.99999
226.99999
226.99999
226.99999
113.5
113.5
113.5
113.5
113.5
113.5
227
227
227
227
227
227
113.5
113.5
113.5
113.5
113.5
113.5
113.5
113.5
227
226.99999
227
226.99999
227
226.99999
226.99999
226.99999
226.99999
226.99999
226.99999
226.99999
226.99999
226.99999
226.99999
227
226.99999
227
226.99999
227
226.99999
226.99999
227
113.5
113.5
113.5
113.5
113.5
113.5
113.5
113.5
113.5
226.99999
226.99999
226.99999
226.99999
226.99999
226.99999
113.5
113.5
113.5
226.99999
226.99999
226.99999
226.99999
226.99999
226.99999
226.99999
226.99999
226.99999
226.99999
113.5
113.5
113.5
113.5
113.5
113.5
226.99999
226.99999
226.99999
226.99999
226.99999
113.5
113.5
113.5
113.5
113.5
113.5
113.5
113.5
113.5
113.5
113.5
113.5
113.5
113.5
113.5
113.5
113.5
113.5
113.5
113.5
113.5
113.5
113.5
113.5
113.5
113.5
113.5
113.5
113.5
113.5
113.5
113.5
113.5
113.5
113.5
113.5
113.5
113.5
113.5
113.5
113.5
113.5
113.5
113.5
113.5
113.5
113.5
113.5
113.5
113.5
113.5
113.5
113.5
113.5
113.5
113.5
113.5
113.5
113.5
113.5
113.5
113.5
113.5
113.5
113.5
113.5
113.5
113.5
113.5
113.5
113.5
113.5
113.5
113.5
113.5
113.5
113.5
113.5
113.5
113.5
226.99999
113.5
113.5
113.5
113.5
113.5
226.99999
113.5
113.5
226.99999
113.5
113.5
113.5
113.5
113.5
226.99999
113.5
113.5
113.5
113.5
113.5
226.99999
113.5
113.5
226.99999
113.5
113.5
113.5
113.5
113.5
113.5
113.5
113.5
113.5
113.5
113.5
113.5
113.5
113.5
113.5
113.5
113.5
113.5
113.5
113.5
113.5
113.5
113.5
113.5
113.5
113.5
113.5
113.5
113.5
113.5
113.5
113.5
113.5
113.5
113.5
113.5
113.5
113.5
113.5
113.5
113.5
113.5
113.5
113.5
113.5
113.5
113.5
113.5
113.5
113.5
113.5
113.5
113.5
113.5
226.99999
113.5
113.5
113.5
113.5
113.5
226.99999
113.5
113.5
113.5
113.5
113.5
113.5
113.5
113.5
113.5
113.5
113.5
226.99999
113.5
113.5
113.5
113.5
113.5
226.99999
113.5
113.5
113.5
113.5
113.5
113.5
113.5
113.5
113.5
113.5
113.5
226.99999
113.5
113.5
113.5
113.5
113.5
113.5
113.5
113.5
226.99999
113.5
113.5
113.5
113.5
113.5
113.5
113.5
113.5
113.5
113.5
113.5
113.5
113.5
113.5
113.5
113.5
113.5
226.99999
113.5
226.99999
113.5
113.5
113.5
113.5
113.5
113.5
113.5
113.5
113.5
113.5
113.5
113.5
226.99999
113.5
226.99999
226.99999
113.5
226.99999
226.99999
113.5
226.99999
226.99999
113.5
226.99999
113.5
113.5
113.5
113.5
113.5
113.5
113.5
113.5
113.5
113.5
113.5
113.5
113.5
113.5
113.5
226.99999
113.5
113.5
113.5
113.5
113.5
113.5
113.5
113.5
113.5
226.99999
113.5
113.5
113.5
113.5
113.5
113.5
113.5
226.99999
226.99999
226.99999
226.99999
113.5
113.5
226.99999
226.99999
226.99999
226.99999
113.5
226.99999
226.99999
113.5
113.5
113.5
113.5
113.5
113.5
113.5
113.5
113.5
113.5
113.5
113.5
113.5
113.5
113.5
113.5
113.5
113.5
113.5
113.5
113.5
113.5
113.5
227
227
227
227
113.5
113.5
113.5
113.5
113.5
113.5
113.5
113.5
113.5
113.5
113.5
113.5
113.5
113.5
113.5
113.5
113.5
113.5
113.5
113.5
113.5
113.5
113.5
113.5
113.5
113.5
113.5
113.5
226.99999
227
227
113.5
113.5
113.5
113.5
113.5
113.5
226.99999
226.99999
113.5
113.5
113.5
113.5
113.5
113.5
226.99999
227
113.5
113.5
113.5
113.5
113.5
113.5
113.5
113.5
113.5
113.5
113.5
113.5
113.5
113.5
113.5
113.5
113.5
113.5
113.5
113.5
113.5
226.99999
227
227
113.5
113.5
113.5
113.5
113.5
226.99999
226.99999
227
113.5
113.5
226.99999
226.99999
226.99999
226.99999
226.99999
113.5
113.5
113.5
226.99999
226.99999
138.30485
127.44046
)


871
(
0
192
192
192
192
192
192
192
192
192
192
192
192
192
192
192
192
192
192
192
192
192
192
192
192
192
192
192
192
192
192
192
192
192
192
192
0
0
0
0
96
96
96
96
96
96
96
96
96
96
96
96
96
96
96
96
96
96
96
96
96
96
96
96
96
96
96
96
96
96
96
96
96
96
96
96
96
96
96
96
96
96
96
96
96
96
96
96
96
96
96
96
96
96
96
96
96
96
96
96
96
96
96
96
96
96
96
96
96
96
96
96
96
96
96
96
96
96
96
96
96
96
96
96
96
96
96
96
96
96
96
96
96
96
96
96
96
96
96
96
96
96
96
96
96
96
96
96
96
96
96
96
96
192
192
192
192
192
96
192
192
192
192
192
96
192
96
96
96
96
96
192
192
96
96
96
96
96
96
96
96
96
96
96
96
192
192
192
192
192
192
192
192
96
192
192
192
192
192
192
192
96
192
96
192
192
192
192
192
96
96
192
96
96
96
96
96
96
192
192
96
96
96
96
96
96
96
96
96
96
96
96
96
96
192
192
192
192
192
192
192
192
192
192
192
192
192
96
192
192
192
192
192
192
192
192
192
192
192
192
192
192
192
96
96
96
96
192
192
192
96
96
96
192
192
192
192
192
96
96
96
96
96
96
96
96
96
96
96
96
96
96
192
192
192
192
192
192
192
192
96
96
192
192
192
192
192
192
192
192
192
96
192
192
192
96
192
192
192
192
96
192
192
192
96
192
192
192
192
192
192
192
192
192
96
96
96
96
96
192
192
96
96
96
96
96
96
96
96
192
192
192
192
192
192
192
192
96
96
96
192
192
192
192
192
192
192
192
96
96
192
192
192
192
96
96
96
96
96
96
192
192
192
192
192
192
96
96
96
96
96
96
96
96
192
192
192
192
192
192
192
192
192
192
192
192
192
192
192
192
192
192
192
192
192
192
192
96
96
96
96
96
96
96
96
96
192
192
192
192
192
192
96
96
96
192
192
192
192
192
192
192
192
192
192
96
96
96
96
96
96
192
192
192
192
192
96
96
96
96
96
96
96
96
96
96
96
96
96
96
96
96
96
96
96
96
96
96
96
96
96
96
96
96
96
96
96
96
96
96
96
96
96
96
96
96
96
96
96
96
96
96
96
96
96
96
96
96
96
96
96
96
96
96
96
96
96
96
96
96
96
96
96
96
96
96
96
96
96
96
96
96
96
96
96
96
192
96
96
96
96
96
192
96
96
192
96
96
96
96
96
192
96
96
96
96
96
192
96
96
192
96
96
96
96
96
96
96
96
96
96
96
96
96
96
96
96
96
96
96
96
96
96
96
96
96
96
96
96
96
96
96
96
96
96
96
96
96
96
96
96
96
96
96
96
96
96
96
96
96
96
96
96
96
96
192
96
96
96
96
96
192
96
96
96
96
96
96
96
96
96
96
96
192
96
96
96
96
96
192
96
96
96
96
96
96
96
96
96
96
96
192
96
96
96
96
96
96
96
96
192
96
96
96
96
96
96
96
96
96
96
96
96
96
96
96
96
96
192
96
192
96
96
96
96
96
96
96
96
96
96
96
96
192
96
192
192
96
192
192
96
192
192
96
192
96
96
96
96
96
96
96
96
96
96
96
96
96
96
96
192
96
96
96
96
96
96
96
96
96
192
96
96
96
96
96
96
96
192
192
192
192
96
96
192
192
192
192
96
192
192
96
96
96
96
96
96
96
96
96
96
96
96
96
96
96
96
96
96
96
96
96
96
96
192
192
192
192
96
96
96
96
96
96
96
96
96
96
96
96
96
96
96
96
96
96
96
96
96
96
96
96
96
96
96
96
192
192
192
96
96
96
96
96
96
192
192
96
96
96
96
96
96
192
192
96
96
96
96
96
96
96
96
96
96
96
96
96
96
96
96
96
96
96
96
96
192
192
192
96
96
96
96
96
192
192
192
96
96
192
192
192
192
192
96
96
96
192
192
116.98032
107.79105
)


871
(
0
149
149
149
149
149
149
149
149
149
149
149
149
149
149
149
149
149
149
149
149
149
149
149
149
149
149
149
149
149
149
149
149
149
149
149
0
0
0
0
74.5
74.5
74.5
74.5
74.5
74.5
74.5
74.5
74.5
74.5
74.5
74.5
74.5
74.5
74.5
74.5
74.5
74.5
74.5
74.5
74.5
74.5
74.5
74.5
74.5
74.5
74.5
74.5
74.5
74.5
74.5
74.5
74.5
74.5
74.5
74.5
74.5
74.5
74.5
74.5
74.5
74.5
74.5
74.5
74.5
74.5
74.5
74.5
74.5
74.5
74.5
74.5
74.5
74.5
74.5
74.5
74.5
74.5
74.5
74.5
74.5
74.5
74.5
74.5
74.5
74.5
74.5
74.5
74.5
74.5
74.5
74.5
74.5
74.5
74.5
74.5
74.5
74.5
74.5
74.5
74.5
74.5
74.5
74.5
74.5
74.5
74.5
74.5
74.5
74.5
74.5
74.5
74.5
74.5
74.5
74.5
74.5
74.5
74.5
74.5
74.5
74.5
74.5
74.5
74.5
74.5
74.5
74.5
74.5
74.5
74.5
74.5
74.5
149
149
149
149
149
74.5
149
149
149
149
149
74.5
149
74.5
74.5
74.5
74.5
74.5
149
149
74.5
74.5
74.5
74.5
74.5
74.5
74.5
74.5
74.5
74.5
74.5
74.5
149
149
149
149
149
149
149
149
74.5
149
149
149
149
149
149
149
74.5
149
74.5
149
149
149
149
149
74.5
74.5
149
74.5
74.5
74.5
74.5
74.5
74.5
149
149
74.5
74.5
74.5
74.5
74.5
74.5
74.5
74.5
74.5
74.5
74.5
74.5
74.5
74.5
149
149
149
149
149
149
149
149
149
149
149
149
149
74.5
149
149
149
149
149
149
149
149
149
149
149
149
149
149
149
74.5
74.5
74.5
74.5
149
149
149
74.5
74.5
74.5
149
149
149
149
149
74.5
74.5
74.5
74.5
74.5
74.5
74.5
74.5
74.5
74.5
74.5
74.5
74.5
74.5
149
149
149
149
149
149
149
149
74.5
74.5
149
149
149
149
149
149
149
149
149
74.5
149
149
149
74.5
149
149
149
149
74.5
149
149
149
74.5
149
149
149
149
149
149
149
149
149
74.5
74.5
74.5
74.5
74.5
149
149
74.5
74.5
74.5
74.5
74.5
74.5
74.5
74.5
149
149
149
149
149
149
149
149
74.5
74.5
74.5
149
149
149
149
149
149
149
149
74.5
74.5
149
149
149
149
74.5
74.5
74.5
74.5
74.5
74.5
149
149
149
149
149
149
74.5
74.5
74.5
74.5
74.5
74.5
74.5
74.5
149
149
149
149
149
149
149
149
149
149
149
149
149
149
149
149
149
149
149
149
149
149
149
74.5
74.5
74.5
74.5
74.5
74.5
74.5
74.5
74.5
149
149
149
149
149
149
74.5
74.5
74.5
149
149
149
149
149
149
149
149
149
149
74.5
74.5
74.5
74.5
74.5
74.5
149
149
149
149
149
74.5
74.5
74.5
74.5
74.5
74.5
74.5
74.5
74.5
74.5
74.5
74.5
74.5
74.5
74.5
74.5
74.5
74.5
74.5
74.5
74.5
74.5
74.5
74.5
74.5
74.5
74.5
74.5
74.5
74.5
74.5
74.5
74.5
74.5
74.5
74.5
74.5
74.5
74.5
74.5
74.5
74.5
74.5
74.5
74.5
74.5
74.5
74.5
74.5
74.5
74.5
74.5
74.5
74.5
74.5
74.5
74.5
74.5
74.5
74.5
74.5
74.5
74.5
74.5
74.5
74.5
74.5
74.5
74.5
74.5
74.5
74.5
74.5
74.5
74.5
74.5
74.5
74.5
74.5
74.5
149
74.5
74.5
74.5
74.5
74.5
149
74.5
74.5
149
74.5
74.5
74.5
74.5
74.5
149
74.5
74.5
74.5
74.5
74.5
149
74.5
74.5
149
74.5
74.5
74.5
74.5
74.5
74.5
74.5
74.5
74.5
74.5
74.5
74.5
74.5
74.5
74.5
74.5
74.5
74.5
74.5
74.5
74.5
74.5
74.5
74.5
74.5
74.5
74.5
74.5
74.5
74.5
74.5
74.5
74.5
74.5
74.5
74.5
74.5
74.5
74.5
74.5
74.5
74.5
74.5
74.5
74.5
74.5
74.5
74.5
74.5
74.5
74.5
74.5
74.5
74.5
149
74.5
74.5
74.5
74.5
74.5
149
74.5
74.5
74.5
74.5
74.5
74.5
74.5
74.5
74.5
74.5
74.5
149
74.5
74.5
74.5
74.5
74.5
149
74.5
74.5
74.5
74.5
74.5
74.5
74.5
74.5
74.5
74.5
74.5
149
74.5
74.5
74.5
74.5
74.5
74.5
74.5
74.5
149
74.5
74.5
74.5
74.5
74.5
74.5
74.5
74.5
74.5
74.5
74.5
74.5
74.5
74.5
74.5
74.5
74.5
149
74.5
149
74.5
74.5
74.5
74.5
74.5
74.5
74.5
74.5
74.5
74.5
74.5
74.5
149
74.5
149
149
74.5
149
149
74.5
149
149
74.5
149
74.5
74.5
74.5
74.5
74.5
74.5
74.5
74.5
74.5
74.5
74.5
74.5
74.5
74.5
74.5
149
74.5
74.5
74.5
74.5
74.5
74.5
74.5
74.5
74.5
149
74.5
74.5
74.5
74.5
74.5
74.5
74.5
149
149
149
149
74.5
74.5
149
149
149
149
74.5
149
149
74.5
74.5
74.5
74.5
74.5
74.5
74.5
74.5
74.5
74.5
74.5
74.5
74.5
74.5
74.5
74.5
74.5
74.5
74.5
74.5
74.5
74.5
74.5
149
149
149
149
74.5
74.5
74.5
74.5
74.5
74.5
74.5
74.5
74.5
74.5
74.5
74.5
74.5
74.5
74.5
74.5
74.5
74.5
74.5
74.5
74.5
74.5
74.5
74.5
74.5
74.5
74.5
74.5
149
149
149
74.5
74.5
74.5
74.5
74.5
74.5
149
149
74.5
74.5
74.5
74.5
74.5
74.5
149
149
74.5
74.5
74.5
74.5
74.5
74.5
74.5
74.5
74.5
74.5
74.5
74.5
74.5
74.5
74.5
74.5
74.5
74.5
74.5
74.5
74.5
149
149
149
74.5
74.5
74.5
74.5
74.5
149
149
149
74.5
74.5
149
149
149
149
149
74.5
74.5
74.5
149
149
90.781599
83.650348
)


871
(
0
107
107
107
107
107
107
107
107
107
107
107
107
107
107
107
107
107
107
107
107
107
107
107
107
107
107
107
107
107
107
107
107
107
107
107
0
0
0
0
53.5
53.5
53.5
53.5
53.5
53.5
53.5
53.5
53.5
53.5
53.5
53.5
53.5
53.5
53.5
53.5
53.5
53.5
53.5
53.5
53.5
53.5
53.5
53.5
53.5
53.5
53.5
53.5
53.5
53.5
53.5
53.5
53.5
53.5
53.5
53.5
53.5
53.5
53.5
53.5
53.5
53.5
53.5
53.5
53.5
53.5
53.5
53.5
53.5
53.5
53.5
53.5
53.5
53.5
53.5
53.5
53.5
53.5
53.5
53.5
53.5
53.5
53.5
53.5
53.5
53.5
53.5
53.5
53.5
53.5
53.5
53.5
53.5
53.5
53.5
53.5
53.5
53.5
53.5
53.5
53.5
53.5
53.5
53.5
53.5
53.5
53.5
53.5
53.5
53.5
53.5
53.5
53.5
53.5
53.5
53.5
53.5
53.5
53.5
53.5
53.5
53.5
53.5
53.5
53.5
53.5
53.5
53.5
53.5
53.5
53.5
53.5
53.5
107
107
107
107
107
53.5
107
107
107
107
107
53.5
107
53.5
53.5
53.5
53.5
53.5
107
107
53.5
53.5
53.5
53.5
53.5
53.5
53.5
53.5
53.5
53.5
53.5
53.5
107
107
107
107
107
107
107
107
53.5
107
107
107
107
107
107
107
53.5
107
53.5
107
107
107
107
107
53.5
53.5
107
53.5
53.5
53.5
53.5
53.5
53.5
107
107
53.5
53.5
53.5
53.5
53.5
53.5
53.5
53.5
53.5
53.5
53.5
53.5
53.5
53.5
107
107
107
107
107
107
107
107
107
107
107
107
107
53.5
107
107
107
107
107
107
107
107
107
107
107
107
107
107
107
53.5
53.5
53.5
53.5
107
107
107
53.5
53.5
53.5
107
107
107
107
107
53.5
53.5
53.5
53.5
53.5
53.5
53.5
53.5
53.5
53.5
53.5
53.5
53.5
53.5
107
107
107
107
107
107
107
107
53.5
53.5
107
107
107
107
107
107
107
107
107
53.5
107
107
107
53.5
107
107
107
107
53.5
107
107
107
53.5
107
107
107
107
107
107
107
107
107
53.5
53.5
53.5
53.5
53.5
107
107
53.5
53.5
53.5
53.5
53.5
53.5
53.5
53.5
107
107
107
107
107
107
107
107
53.5
53.5
53.5
107
107
107
107
107
107
107
107
53.5
53.5
107
107
107
107
53.5
53.5
53.5
53.5
53.5
53.5
107
107
107
107
107
107
53.5
53.5
53.5
53.5
53.5
53.5
53.5
53.5
107
107
107
107
107
107
107
107
107
107
107
107
107
107
107
107
107
107
107
107
107
107
107
53.5
53.5
53.5
53.5
53.5
53.5
53.5
53.5
53.5
107
107
107
107
107
107
53.5
53.5
53.5
107
107
107
107
107
107
107
107
107
107
53.5
53.5
53.5
53.5
53.5
53.5
107
107
107
107
107
53.5
53.5
53.5
53.5
53.5
53.5
53.5
53.5
53.5
53.5
53.5
53.5
53.5
53.5
53.5
53.5
53.5
53.5
53.5
53.5
53.5
53.5
53.5
53.5
53.5
53.5
53.5
53.5
53.5
53.5
53.5
53.5
53.5
53.5
53.5
53.5
53.5
53.5
53.5
53.5
53.5
53.5
53.5
53.5
53.5
53.5
53.5
53.5
53.5
53.5
53.5
53.5
53.5
53.5
53.5
53.5
53.5
53.5
53.5
53.5
53.5
53.5
53.5
53.5
53.5
53.5
53.5
53.5
53.5
53.5
53.5
53.5
53.5
53.5
53.5
53.5
53.5
53.5
53.5
53.5
107
53.5
53.5
53.5
53.5
53.5
107
53.5
53.5
107
53.5
53.5
53.5
53.5
53.5
107
53.5
53.5
53.5
53.5
53.5
107
53.5
53.5
107
53.5
53.5
53.5
53.5
53.5
53.5
53.5
53.5
53.5
53.5
53.5
53.5
53.5
53.5
53.5
53.5
53.5
53.5
53.5
53.5
53.5
53.5
53.5
53.5
53.5
53.5
53.5
53.5
53.5
53.5
53.5
53.5
53.5
53.5
53.5
53.5
53.5
53.5
53.5
53.5
53.5
53.5
53.5
53.5
53.5
53.5
53.5
53.5
53.5
53.5
53.5
53.5
53.5
53.5
107
53.5
53.5
53.5
53.5
53.5
107
53.5
53.5
53.5
53.5
53.5
53.5
53.5
53.5
53.5
53.5
53.5
107
53.5
53.5
53.5
53.5
53.5
107
53.5
53.5
53.5
53.5
53.5
53.5
53.5
53.5
53.5
53.5
53.5
107
53.5
53.5
53.5
53.5
53.5
53.5
53.5
53.5
107
53.5
53.5
53.5
53.5
53.5
53.5
53.5
53.5
53.5
53.5
53.5
53.5
53.5
53.5
53.5
53.5
53.5
107
53.5
107
53.5
53.5
53.5
53.5
53.5
53.5
53.5
53.5
53.5
53.5
53.5
53.5
107
53.5
107
107
53.5
107
107
53.5
107
107
53.5
107
53.5
53.5
53.5
53.5
53.5
53.5
53.5
53.5
53.5
53.5
53.5
53.5
53.5
53.5
53.5
107
53.5
53.5
53.5
53.5
53.5
53.5
53.5
53.5
53.5
107
53.5
53.5
53.5
53.5
53.5
53.5
53.5
107
107
107
107
53.5
53.5
107
107
107
107
53.5
107
107
53.5
53.5
53.5
53.5
53.5
53.5
53.5
53.5
53.5
53.5
53.5
53.5
53.5
53.5
53.5
53.5
53.5
53.5
53.5
53.5
53.5
53.5
53.5
107
107
107
107
53.5
53.5
53.5
53.5
53.5
53.5
53.5
53.5
53.5
53.5
53.5
53.5
53.5
53.5
53.5
53.5
53.5
53.5
53.5
53.5
53.5
53.5
53.5
53.5
53.5
53.5
53.5
53.5
107
107
107
53.5
53.5
53.5
53.5
53.5
53.5
107
107
53.5
53.5
53.5
53.5
53.5
53.5
107
107
53.5
53.5
53.5
53.5
53.5
53.5
53.5
53.5
53.5
53.5
53.5
53.5
53.5
53.5
53.5
53.5
53.5
53.5
53.5
53.5
53.5
107
107
107
53.5
53.5
53.5
53.5
53.5
107
107
107
53.5
53.5
107
107
107
107
107
53.5
53.5
53.5
107
107
65.192155
60.071055
)

)


// ************************************************************************* //
