/*--------------------------------*- C++ -*----------------------------------*\
  =========                 |
  \\      /  F ield         | OpenFOAM: The Open Source CFD Toolbox
   \\    /   O peration     | Website:  https://openfoam.org
    \\  /    A nd           | Version:  8
     \\/     M anipulation  |
\*---------------------------------------------------------------------------*/
/*   Windows 32 and 64 bit porting by blueCAPE: http://www.bluecape.com.pt   *\
|  Based on Windows porting (2.0.x v4) by Symscape: http://www.symscape.com   |
\*---------------------------------------------------------------------------*/
FoamFile
{
    version     2.0;
    format      ascii;
    class       scalarListList;
    location    "constant/vegetation";
    object      sunViewCoeff;
}
// * * * * * * * * * * * * * * * * * * * * * * * * * * * * * * * * * * * * * //


5
(

871
(
0
717.08284
717.08284
717.08284
717.08284
717.08284
717.08284
717.08284
717.08284
717.08284
717.08284
717.08284
717.08284
717.08284
717.08284
717.08284
717.08284
646.88648
717.08284
644.30967
717.08284
717.08284
717.08284
572.49692
717.08284
717.08284
717.08284
717.08284
717.08284
717.08284
717.08284
717.08284
147.61235
649.3092
717.08284
717.08284
0
0
0
0
80.639504
80.639504
80.639504
80.639504
80.639504
80.639504
80.639504
80.639504
80.639504
80.639504
80.639504
80.639504
80.639504
80.639504
80.639504
80.639504
80.639504
80.639504
80.639504
80.639504
80.639504
80.639504
80.639504
80.639504
222.06862
222.06862
222.06862
222.06862
222.06862
222.06862
222.06862
222.06862
222.06862
222.06862
222.06862
222.06862
222.06862
222.06862
222.06862
222.06862
222.06862
80.639504
222.06862
222.06862
222.06862
222.06862
222.06862
222.06862
222.06862
222.06862
222.06862
222.06862
222.06862
222.06862
222.06862
222.06862
222.06862
222.06862
222.06862
222.06862
222.06862
222.06862
80.639504
222.06862
222.06862
222.06862
222.06862
222.06862
222.06862
222.06862
222.06862
222.06862
222.06862
222.06862
222.06862
222.06862
222.06862
80.639504
80.639504
222.06862
222.06862
222.06862
222.06862
222.06862
222.06862
222.06862
222.06862
80.639504
80.639504
222.06862
222.06862
222.06862
222.06862
222.06862
222.06862
222.06862
222.06862
222.06862
222.06862
80.639504
80.639504
80.639504
80.639504
80.639504
80.639504
80.639504
80.639504
80.639504
80.639504
80.639504
80.639504
80.639504
80.639504
717.08284
717.08284
717.08284
717.08284
717.08284
80.639504
717.08284
717.08284
717.08284
717.08284
717.08284
80.639504
717.08284
80.639504
80.639504
80.639504
80.639504
80.639504
717.08284
717.08284
80.639504
80.639504
80.639504
80.639504
80.639504
80.639504
80.639504
80.639504
80.639504
80.639504
80.639504
80.639504
717.08284
717.08284
717.08284
717.08284
717.08284
717.08284
717.08284
717.08284
80.639504
717.08284
717.08284
717.08284
717.08284
717.08284
717.08284
717.08284
80.639504
717.08284
80.639504
717.08284
717.08284
717.08284
717.08284
717.08284
80.639504
80.639504
717.08284
80.639504
80.639504
80.639504
80.639504
80.639504
80.639504
717.08284
717.08284
80.639504
80.639504
80.639504
80.639504
80.639504
80.639504
80.639504
80.639504
80.639504
80.639504
80.639504
80.639504
80.639504
80.639504
717.08284
717.08284
717.08284
717.08284
717.08284
717.08284
717.08284
717.08284
717.08284
717.08284
717.08284
717.08284
717.08284
80.639504
717.08284
717.08284
717.08284
717.08284
717.08284
717.08284
717.08284
717.08284
717.08284
717.08284
717.08284
717.08284
717.08284
717.08284
717.08284
80.639504
80.639504
80.639504
80.639504
717.08284
717.08284
717.08284
80.639504
80.639504
80.639504
717.08284
717.08284
717.08284
717.08284
717.08284
80.639504
80.639504
80.639504
80.639504
80.639504
80.639504
80.639504
80.639504
80.639504
80.639504
80.639504
80.639504
80.639504
80.639504
717.08284
717.08284
717.08284
717.08284
717.08284
717.08284
717.08284
717.08284
80.639504
80.639504
717.08284
717.08284
717.08284
717.08284
717.08284
717.08284
717.08284
717.08284
717.08284
80.639504
717.08284
717.08284
717.08284
80.639504
717.08284
717.08284
717.08284
717.08284
80.639504
717.08284
717.08284
717.08284
80.639504
717.08284
717.08284
717.08284
717.08284
717.08284
717.08284
717.08284
717.08284
717.08284
80.639504
80.639504
80.639504
80.639504
80.639504
717.08284
717.08284
80.639504
80.639504
80.639504
80.639504
80.639504
80.639504
80.639504
80.639504
717.08284
717.08284
717.08284
717.08284
717.08284
717.08284
717.08284
717.08284
80.639504
80.639504
80.639504
717.08284
717.08284
717.08284
717.08284
717.08284
717.08284
717.08284
717.08284
80.639504
80.639504
717.08284
717.08284
717.08284
717.08284
80.639504
80.639504
80.639504
80.639504
80.639504
80.639504
717.08284
717.08284
717.08284
717.08284
717.08284
717.08284
80.639504
80.639504
80.639504
80.639504
80.639504
80.639504
80.639504
80.639504
717.08284
717.08284
717.08284
717.08284
717.08284
717.08284
717.08284
717.08284
717.08284
717.08284
717.08284
717.08284
717.08284
717.08284
717.08284
717.08284
717.08284
717.08284
717.08284
717.08284
717.08284
717.08284
717.08284
80.639504
80.639504
80.639504
80.639504
80.639504
80.639504
80.639504
80.639504
80.639504
717.08284
717.08284
717.08284
717.08284
717.08284
717.08284
80.639504
80.639504
80.639504
717.08284
717.08284
717.08284
717.08284
717.08284
717.08284
717.08284
717.08284
717.08284
717.08284
80.639504
80.639504
80.639504
80.639504
80.639504
80.639504
717.08284
717.08284
717.08284
717.08284
717.08284
222.06862
222.06862
222.06862
222.06862
222.06862
222.06862
222.06862
222.06862
222.06862
222.06862
222.06862
222.06862
222.06862
222.06862
222.06862
222.06862
222.06862
222.06862
222.06862
222.06862
222.06862
222.06862
222.06862
222.06862
222.06862
222.06862
222.06862
222.06862
222.06862
222.06862
222.06862
222.06862
222.06862
222.06862
222.06862
222.06862
222.06862
222.06862
222.06862
222.06862
222.06862
222.06862
222.06862
222.06862
222.06862
222.06862
222.06862
222.06862
222.06862
222.06862
80.639504
222.06862
222.06862
222.06862
222.06862
222.06862
222.06862
222.06862
222.06862
80.639504
222.06862
222.06862
222.06862
222.06862
222.06862
80.639504
222.06862
222.06862
222.06862
222.06862
222.06862
222.06862
222.06862
222.06862
80.639504
222.06862
222.06862
222.06862
222.06862
222.06862
717.08284
222.06862
222.06862
222.06862
222.06862
222.06862
717.08284
222.06862
222.06862
717.08284
222.06862
222.06862
222.06862
222.06862
222.06862
717.08284
222.06862
222.06862
222.06862
222.06862
222.06862
717.08284
80.639504
222.06862
717.08284
222.06862
222.06862
222.06862
222.06862
222.06862
222.06862
222.06862
80.639504
222.06862
222.06862
222.06862
222.06862
222.06862
222.06862
222.06862
222.06862
222.06862
222.06862
222.06862
222.06862
222.06862
222.06862
80.639504
222.06862
222.06862
222.06862
222.06862
222.06862
222.06862
80.639504
222.06862
222.06862
222.06862
222.06862
222.06862
80.639504
80.639504
222.06862
222.06862
222.06862
80.639504
222.06862
222.06862
222.06862
222.06862
222.06862
80.639504
80.639504
222.06862
222.06862
222.06862
222.06862
222.06862
222.06862
717.08284
222.06862
222.06862
222.06862
222.06862
222.06862
717.08284
222.06862
222.06862
222.06862
222.06862
222.06862
222.06862
222.06862
222.06862
222.06862
222.06862
222.06862
717.08284
222.06862
222.06862
222.06862
222.06862
222.06862
717.08284
222.06862
222.06862
222.06862
222.06862
222.06862
222.06862
222.06862
222.06862
80.639504
222.06862
222.06862
717.08284
222.06862
222.06862
222.06862
222.06862
222.06862
222.06862
222.06862
222.06862
717.08284
222.06862
222.06862
222.06862
222.06862
222.06862
222.06862
222.06862
222.06862
222.06862
222.06862
222.06862
222.06862
222.06862
222.06862
222.06862
222.06862
222.06862
717.08284
80.639504
717.08284
222.06862
222.06862
222.06862
222.06862
222.06862
222.06862
222.06862
222.06862
222.06862
222.06862
222.06862
222.06862
717.08284
80.639504
717.08284
717.08284
80.639504
717.08284
717.08284
80.639504
717.08284
717.08284
80.639504
717.08284
222.06862
222.06862
222.06862
222.06862
222.06862
222.06862
222.06862
222.06862
222.06862
222.06862
222.06862
222.06862
222.06862
222.06862
222.06862
717.08284
222.06862
222.06862
222.06862
222.06862
80.639504
80.639504
222.06862
222.06862
222.06862
717.08284
80.639504
80.639504
222.06862
222.06862
222.06862
222.06862
222.06862
717.08284
717.08284
717.08284
717.08284
80.639504
80.639504
717.08284
717.08284
717.08284
717.08284
80.639504
717.08284
717.08284
80.639504
80.639504
222.06862
222.06862
222.06862
222.06862
222.06862
222.06862
222.06862
222.06862
222.06862
222.06862
222.06862
222.06862
222.06862
222.06862
222.06862
222.06862
222.06862
222.06862
222.06862
222.06862
222.06862
717.08284
717.08284
717.08284
717.08284
222.06862
222.06862
222.06862
222.06862
222.06862
222.06862
222.06862
222.06862
222.06862
222.06862
222.06862
222.06862
80.639504
80.639504
222.06862
222.06862
222.06862
222.06862
222.06862
222.06862
222.06862
222.06862
222.06862
222.06862
222.06862
222.06862
80.639504
80.639504
717.08284
717.08284
717.08284
222.06862
222.06862
222.06862
222.06862
222.06862
222.06862
717.08284
717.08284
222.06862
222.06862
222.06862
222.06862
222.06862
222.06862
717.08284
717.08284
222.06862
222.06862
222.06862
222.06862
222.06862
222.06862
222.06862
222.06862
222.06862
222.06862
222.06862
222.06862
222.06862
222.06862
222.06862
222.06862
222.06862
222.06862
222.06862
222.06862
222.06862
717.08284
717.08284
717.08284
80.639504
80.639504
80.639504
80.639504
80.639504
717.08284
717.08284
717.08284
80.639504
80.639504
717.08284
717.08284
717.08284
717.08284
717.08284
80.639504
80.639504
80.639504
717.08284
717.08284
272.96108
43.381743
)


871
(
0
585.76158
585.76158
585.76158
585.76158
585.76158
585.76158
585.76158
373.81085
585.76158
585.76158
585.76158
585.76158
585.76158
585.76158
585.76158
533.90085
401.22043
585.76158
223.03424
585.76158
585.76158
585.76158
120.80001
585.76158
585.76158
585.76158
585.76158
585.76158
585.76158
585.76158
585.76158
93.986979
342.05705
585.76158
585.76158
0
0
0
0
227.80796
227.80796
227.80796
227.80796
227.80796
227.80796
227.80796
227.80796
227.80796
227.80796
227.80796
227.80796
227.80796
227.80796
227.80796
227.80796
227.80796
227.80796
227.80796
227.80796
227.80796
227.80796
227.80796
227.80796
169.66998
169.66998
169.66998
169.66998
169.66998
169.66998
169.66998
169.66998
169.66998
169.66998
169.66998
169.66998
169.66998
169.66998
169.66998
169.66998
169.66998
227.80796
169.66998
169.66998
169.66998
169.66998
169.66998
169.66998
169.66998
169.66998
169.66998
169.66998
169.66998
169.66998
169.66998
169.66998
169.66998
169.66998
169.66998
169.66998
169.66998
169.66998
227.80796
169.66998
169.66998
169.66998
169.66998
169.66998
169.66998
169.66998
169.66998
169.66998
169.66998
169.66998
169.66998
169.66998
169.66998
227.80796
227.80796
169.66998
169.66998
169.66998
169.66998
169.66998
169.66998
169.66998
169.66998
227.80796
227.80796
169.66998
169.66998
169.66998
169.66998
169.66998
169.66998
169.66998
169.66998
169.66998
169.66998
227.80796
227.80796
227.80796
227.80796
227.80796
227.80796
227.80796
227.80796
227.80796
227.80796
227.80796
227.80796
227.80796
227.80796
585.76158
585.76158
585.76158
585.76158
585.76158
227.80796
585.76158
585.76158
585.76158
585.76158
585.76158
227.80796
585.76158
227.80796
227.80796
227.80796
227.80796
227.80796
585.76158
585.76158
227.80796
227.80796
227.80796
227.80796
227.80796
227.80796
227.80796
227.80796
227.80796
227.80796
227.80796
227.80796
585.76158
585.76158
585.76158
585.76158
585.76158
585.76158
585.76158
585.76158
227.80796
585.76158
585.76158
585.76158
585.76158
585.76158
585.76158
585.76158
227.80796
585.76158
227.80796
585.76158
585.76158
585.76158
585.76158
585.76158
227.80796
227.80796
585.76158
227.80796
227.80796
227.80796
227.80796
227.80796
227.80796
585.76158
585.76158
227.80796
227.80796
227.80796
227.80796
227.80796
227.80796
227.80796
227.80796
227.80796
227.80796
227.80796
227.80796
227.80796
227.80796
585.76158
585.76158
585.76158
585.76158
585.76158
585.76158
585.76158
585.76158
585.76158
585.76158
585.76158
585.76158
585.76158
227.80796
585.76158
585.76158
585.76158
585.76158
585.76158
585.76158
585.76158
585.76158
585.76158
585.76158
585.76158
585.76158
585.76158
585.76158
585.76158
227.80796
227.80796
227.80796
227.80796
585.76158
585.76158
585.76158
227.80796
227.80796
227.80796
585.76158
585.76158
585.76158
585.76158
585.76158
227.80796
227.80796
227.80796
227.80796
227.80796
227.80796
227.80796
227.80796
227.80796
227.80796
227.80796
227.80796
227.80796
227.80796
585.76158
585.76158
585.76158
585.76158
585.76158
585.76158
585.76158
585.76158
227.80796
227.80796
585.76158
585.76158
585.76158
585.76158
585.76158
585.76158
585.76158
585.76158
585.76158
227.80796
585.76158
585.76158
585.76158
227.80796
585.76158
585.76158
585.76158
585.76158
227.80796
585.76158
585.76158
585.76158
227.80796
585.76158
585.76158
585.76158
585.76158
585.76158
585.76158
585.76158
585.76158
585.76158
227.80796
227.80796
227.80796
227.80796
227.80796
585.76158
585.76158
227.80796
227.80796
227.80796
227.80796
227.80796
227.80796
227.80796
227.80796
585.76158
585.76158
585.76158
585.76158
585.76158
585.76158
585.76158
585.76158
227.80796
227.80796
227.80796
585.76158
585.76158
585.76158
585.76158
585.76158
585.76158
585.76158
585.76158
227.80796
227.80796
585.76158
585.76158
585.76158
585.76158
227.80796
227.80796
227.80796
227.80796
227.80796
227.80796
585.76158
585.76158
585.76158
585.76158
585.76158
585.76158
227.80796
227.80796
227.80796
227.80796
227.80796
227.80796
227.80796
227.80796
585.76158
585.76158
585.76158
585.76158
585.76158
585.76158
585.76158
585.76158
585.76158
585.76158
585.76158
585.76158
585.76158
585.76158
585.76158
585.76158
585.76158
585.76158
585.76158
585.76158
585.76158
585.76158
585.76158
227.80796
227.80796
227.80796
227.80796
227.80796
227.80796
227.80796
227.80796
227.80796
585.76158
585.76158
585.76158
585.76158
585.76158
585.76158
227.80796
227.80796
227.80796
585.76158
585.76158
585.76158
585.76158
585.76158
585.76158
585.76158
585.76158
585.76158
585.76158
227.80796
227.80796
227.80796
227.80796
227.80796
227.80796
585.76158
585.76158
585.76158
585.76158
585.76158
169.66998
169.66998
169.66998
169.66998
169.66998
169.66998
169.66998
169.66998
169.66998
169.66998
169.66998
169.66998
169.66998
169.66998
169.66998
169.66998
169.66998
169.66998
169.66998
169.66998
169.66998
169.66998
169.66998
169.66998
169.66998
169.66998
169.66998
169.66998
169.66998
169.66998
169.66998
169.66998
169.66998
169.66998
169.66998
169.66998
169.66998
169.66998
169.66998
169.66998
169.66998
169.66998
169.66998
169.66998
169.66998
169.66998
169.66998
169.66998
169.66998
169.66998
227.80796
169.66998
169.66998
169.66998
169.66998
169.66998
169.66998
169.66998
169.66998
227.80796
169.66998
169.66998
169.66998
169.66998
169.66998
227.80796
169.66998
169.66998
169.66998
169.66998
169.66998
169.66998
169.66998
169.66998
227.80796
169.66998
169.66998
169.66998
169.66998
169.66998
585.76158
169.66998
169.66998
169.66998
169.66998
169.66998
585.76158
169.66998
169.66998
585.76158
169.66998
169.66998
169.66998
169.66998
169.66998
585.76158
169.66998
169.66998
169.66998
169.66998
169.66998
585.76158
227.80796
169.66998
585.76158
169.66998
169.66998
169.66998
169.66998
169.66998
169.66998
169.66998
227.80796
169.66998
169.66998
169.66998
169.66998
169.66998
169.66998
169.66998
169.66998
169.66998
169.66998
169.66998
169.66998
169.66998
169.66998
227.80796
169.66998
169.66998
169.66998
169.66998
169.66998
169.66998
227.80796
169.66998
169.66998
169.66998
169.66998
169.66998
227.80796
227.80796
169.66998
169.66998
169.66998
227.80796
169.66998
169.66998
169.66998
169.66998
169.66998
227.80796
227.80796
169.66998
169.66998
169.66998
169.66998
169.66998
169.66998
585.76158
169.66998
169.66998
169.66998
169.66998
169.66998
585.76158
169.66998
169.66998
169.66998
169.66998
169.66998
169.66998
169.66998
169.66998
169.66998
169.66998
169.66998
585.76158
169.66998
169.66998
169.66998
169.66998
169.66998
585.76158
169.66998
169.66998
169.66998
169.66998
169.66998
169.66998
169.66998
169.66998
227.80796
169.66998
169.66998
585.76158
169.66998
169.66998
169.66998
169.66998
169.66998
169.66998
169.66998
169.66998
585.76158
169.66998
169.66998
169.66998
169.66998
169.66998
169.66998
169.66998
169.66998
169.66998
169.66998
169.66998
169.66998
169.66998
169.66998
169.66998
169.66998
169.66998
585.76158
227.80796
585.76158
169.66998
169.66998
169.66998
169.66998
169.66998
169.66998
169.66998
169.66998
169.66998
169.66998
169.66998
169.66998
585.76158
227.80796
585.76158
585.76158
227.80796
585.76158
585.76158
227.80796
585.76158
585.76158
227.80796
585.76158
169.66998
169.66998
169.66998
169.66998
169.66998
169.66998
169.66998
169.66998
169.66998
169.66998
169.66998
169.66998
169.66998
169.66998
169.66998
585.76158
169.66998
169.66998
169.66998
169.66998
227.80796
227.80796
169.66998
169.66998
169.66998
585.76158
227.80796
227.80796
169.66998
169.66998
169.66998
169.66998
169.66998
585.76158
585.76158
585.76158
585.76158
227.80796
227.80796
585.76158
585.76158
585.76158
585.76158
227.80796
585.76158
585.76158
227.80796
227.80796
169.66998
169.66998
169.66998
169.66998
169.66998
169.66998
169.66998
169.66998
169.66998
169.66998
169.66998
169.66998
169.66998
169.66998
169.66998
169.66998
169.66998
169.66998
169.66998
169.66998
169.66998
585.76158
585.76158
585.76158
585.76158
169.66998
169.66998
169.66998
169.66998
169.66998
169.66998
169.66998
169.66998
169.66998
169.66998
169.66998
169.66998
227.80796
227.80796
169.66998
169.66998
169.66998
169.66998
169.66998
169.66998
169.66998
169.66998
169.66998
169.66998
169.66998
169.66998
227.80796
227.80796
585.76158
585.76158
585.76158
169.66998
169.66998
169.66998
169.66998
169.66998
169.66998
585.76158
585.76158
169.66998
169.66998
169.66998
169.66998
169.66998
169.66998
585.76158
585.76158
169.66998
169.66998
169.66998
169.66998
169.66998
169.66998
169.66998
169.66998
169.66998
169.66998
169.66998
169.66998
169.66998
169.66998
169.66998
169.66998
169.66998
169.66998
169.66998
169.66998
169.66998
585.76158
585.76158
585.76158
227.80796
227.80796
227.80796
227.80796
227.80796
585.76158
585.76158
585.76158
227.80796
227.80796
585.76158
585.76158
585.76158
585.76158
585.76158
227.80796
227.80796
227.80796
585.76158
585.76158
76.56739
44.628848
)


871
(
0
536.2201
536.2201
536.2201
536.2201
417.36096
536.2201
536.2201
84.534067
536.2201
536.2201
536.2201
536.2201
536.2201
536.2201
520.35305
170.63445
387.89357
536.2201
82.45219
536.2201
536.2201
536.2201
78.007643
536.2201
536.2201
536.2201
536.2201
536.2201
536.2201
536.2201
536.2201
113.28747
163.31996
536.2201
536.2201
0
0
0
0
381.92334
97.117735
113.40239
169.94623
142.43772
381.92334
381.92334
381.92334
381.92334
102.20621
151.75395
132.94342
170.45204
381.92334
381.92334
381.92334
120.84335
188.48782
158.76984
195.6752
156.47343
381.92334
177.61186
381.92334
129.78276
129.78276
129.78276
129.78276
129.78276
129.78276
129.78276
129.78276
129.78276
129.78276
129.78276
129.78276
129.78276
129.78276
129.78276
129.78276
129.78276
381.92334
129.78276
129.78276
129.78276
129.78276
129.78276
129.78276
129.78276
129.78276
129.78276
129.78276
129.78276
129.78276
129.78276
129.78276
129.78276
129.78276
129.78276
129.78276
129.78276
129.78276
381.92334
129.78276
129.78276
129.78276
129.78276
129.78276
129.78276
129.78276
129.78276
129.78276
129.78276
129.78276
129.78276
129.78276
129.78276
142.96117
381.92334
129.78276
129.78276
129.78276
129.78276
129.78276
129.78276
129.78276
129.78276
381.92334
381.92334
129.78276
129.78276
129.78276
129.78276
129.78276
129.78276
129.78276
129.78276
129.78276
129.78276
164.67745
148.40035
170.6994
381.92334
381.92334
381.92334
381.92334
381.92334
381.92334
381.92334
381.92334
381.92334
381.92334
381.92334
536.2201
536.2201
536.2201
536.2201
536.2201
381.92334
536.2201
536.2201
536.2201
536.2201
536.2201
381.92334
536.2201
381.92334
381.92334
381.92334
381.92334
381.92334
536.2201
536.2201
381.92334
381.92334
381.92334
381.92334
381.92334
381.92334
179.16427
381.92334
381.92334
381.92334
381.92334
381.92334
536.2201
536.2201
536.2201
536.2201
536.2201
536.2201
536.2201
536.2201
381.92334
536.2201
536.2201
536.2201
536.2201
536.2201
536.2201
536.2201
381.92334
536.2201
381.92334
536.2201
536.2201
536.2201
536.2201
536.2201
381.92334
381.92334
536.2201
381.92334
381.92334
381.92334
381.92334
381.92334
381.92334
536.2201
536.2201
381.92334
381.92334
381.92334
381.92334
381.92334
381.92334
381.92334
381.92334
381.92334
381.92334
381.92334
381.92334
381.92334
381.92334
536.2201
536.2201
536.2201
536.2201
536.2201
536.2201
536.2201
536.2201
536.2201
536.2201
536.2201
536.2201
536.2201
381.92334
536.2201
536.2201
536.2201
536.2201
536.2201
536.2201
536.2201
536.2201
536.2201
536.2201
536.2201
536.2201
536.2201
536.2201
536.2201
381.92334
381.92334
381.92334
381.92334
536.2201
536.2201
536.2201
381.92334
381.92334
381.92334
536.2201
536.2201
536.2201
536.2201
536.2201
381.92334
381.92334
381.92334
381.92334
381.92334
381.92334
381.92334
381.92334
381.92334
381.92334
381.92334
381.92334
381.92334
381.92334
536.2201
536.2201
536.2201
536.2201
536.2201
536.2201
536.2201
536.2201
381.92334
381.92334
536.2201
536.2201
536.2201
536.2201
536.2201
536.2201
536.2201
536.2201
536.2201
381.92334
536.2201
536.2201
536.2201
381.92334
536.2201
536.2201
536.2201
536.2201
381.92334
536.2201
536.2201
536.2201
381.92334
536.2201
536.2201
536.2201
536.2201
536.2201
536.2201
536.2201
536.2201
536.2201
381.92334
381.92334
381.92334
381.92334
381.92334
536.2201
536.2201
381.92334
381.92334
381.92334
381.92334
164.27892
187.71746
381.92334
381.92334
536.2201
536.2201
536.2201
536.2201
536.2201
536.2201
536.2201
536.2201
381.92334
381.92334
381.92334
536.2201
536.2201
536.2201
536.2201
536.2201
536.2201
536.2201
536.2201
381.92334
381.92334
536.2201
536.2201
536.2201
536.2201
381.92334
381.92334
381.92334
381.92334
381.92334
381.92334
536.2201
536.2201
536.2201
536.2201
536.2201
536.2201
381.92334
381.92334
381.92334
381.92334
381.92334
381.92334
381.92334
381.92334
536.2201
536.2201
536.2201
536.2201
536.2201
536.2201
536.2201
536.2201
536.2201
536.2201
536.2201
536.2201
536.2201
536.2201
536.2201
536.2201
536.2201
536.2201
536.2201
536.2201
536.2201
536.2201
536.2201
381.92334
381.92334
381.92334
381.92334
381.92334
381.92334
381.92334
381.92334
381.92334
536.2201
536.2201
536.2201
536.2201
536.2201
536.2201
381.92334
381.92334
381.92334
536.2201
536.2201
536.2201
536.2201
536.2201
536.2201
536.2201
536.2201
536.2201
536.2201
381.92334
381.92334
381.92334
381.92334
381.92334
381.92334
536.2201
536.2201
536.2201
536.2201
536.2201
129.78276
129.78276
129.78276
129.78276
129.78276
129.78276
129.78276
129.78276
129.78276
129.78276
129.78276
129.78276
129.78276
129.78276
129.78276
129.78276
129.78276
129.78276
129.78276
129.78276
129.78276
129.78276
129.78276
129.78276
129.78276
129.78276
129.78276
129.78276
129.78276
129.78276
129.78276
129.78276
129.78276
129.78276
129.78276
129.78276
129.78276
129.78276
129.78276
129.78276
129.78276
129.78276
129.78276
129.78276
129.78276
129.78276
129.78276
129.78276
129.78276
129.78276
381.92334
129.78276
129.78276
129.78276
129.78276
129.78276
129.78276
129.78276
129.78276
381.92334
129.78276
129.78276
129.78276
129.78276
129.78276
381.92334
129.78276
129.78276
129.78276
129.78276
129.78276
129.78276
129.78276
129.78276
381.92334
129.78276
129.78276
129.78276
129.78276
129.78276
536.2201
129.78276
129.78276
129.78276
129.78276
129.78276
536.2201
129.78276
129.78276
536.2201
129.78276
129.78276
129.78276
129.78276
129.78276
536.2201
129.78276
129.78276
129.78276
129.78276
129.78276
536.2201
381.92334
129.78276
536.2201
129.78276
129.78276
129.78276
129.78276
129.78276
129.78276
129.78276
381.92334
129.78276
129.78276
129.78276
129.78276
129.78276
129.78276
129.78276
129.78276
129.78276
129.78276
129.78276
129.78276
129.78276
129.78276
381.92334
129.78276
129.78276
129.78276
129.78276
129.78276
129.78276
381.92334
129.78276
129.78276
129.78276
129.78276
129.78276
381.92334
381.92334
129.78276
129.78276
129.78276
381.92334
129.78276
129.78276
129.78276
129.78276
129.78276
381.92334
381.92334
129.78276
129.78276
129.78276
129.78276
129.78276
129.78276
536.2201
129.78276
129.78276
129.78276
129.78276
129.78276
536.2201
129.78276
129.78276
129.78276
129.78276
129.78276
129.78276
129.78276
129.78276
129.78276
129.78276
129.78276
536.2201
129.78276
129.78276
129.78276
129.78276
129.78276
536.2201
129.78276
129.78276
129.78276
129.78276
129.78276
129.78276
129.78276
129.78276
381.92334
129.78276
129.78276
536.2201
129.78276
129.78276
129.78276
129.78276
129.78276
129.78276
129.78276
129.78276
536.2201
129.78276
129.78276
129.78276
129.78276
129.78276
129.78276
129.78276
129.78276
129.78276
129.78276
129.78276
129.78276
129.78276
129.78276
129.78276
129.78276
129.78276
536.2201
381.92334
536.2201
129.78276
129.78276
129.78276
129.78276
129.78276
129.78276
129.78276
129.78276
129.78276
129.78276
129.78276
129.78276
536.2201
381.92334
536.2201
536.2201
381.92334
536.2201
536.2201
381.92334
536.2201
536.2201
381.92334
536.2201
129.78276
129.78276
129.78276
129.78276
129.78276
129.78276
129.78276
129.78276
129.78276
129.78276
129.78276
129.78276
129.78276
129.78276
129.78276
536.2201
129.78276
129.78276
129.78276
129.78276
381.92334
381.92334
129.78276
129.78276
129.78276
536.2201
381.92334
381.92334
129.78276
129.78276
129.78276
129.78276
129.78276
536.2201
536.2201
536.2201
536.2201
381.92334
381.92334
536.2201
536.2201
536.2201
536.2201
381.92334
536.2201
536.2201
381.92334
381.92334
129.78276
129.78276
129.78276
129.78276
129.78276
129.78276
129.78276
129.78276
129.78276
129.78276
129.78276
129.78276
129.78276
129.78276
129.78276
129.78276
129.78276
129.78276
129.78276
129.78276
129.78276
536.2201
536.2201
536.2201
536.2201
129.78276
129.78276
129.78276
129.78276
129.78276
129.78276
129.78276
129.78276
129.78276
129.78276
129.78276
129.78276
381.92334
381.92334
129.78276
129.78276
129.78276
129.78276
129.78276
129.78276
129.78276
129.78276
129.78276
129.78276
129.78276
129.78276
381.92334
381.92334
536.2201
536.2201
536.2201
129.78276
129.78276
129.78276
129.78276
129.78276
129.78276
536.2201
536.2201
129.78276
129.78276
129.78276
129.78276
129.78276
129.78276
536.2201
536.2201
129.78276
129.78276
129.78276
129.78276
129.78276
129.78276
129.78276
129.78276
129.78276
129.78276
129.78276
129.78276
129.78276
129.78276
129.78276
129.78276
129.78276
129.78276
129.78276
129.78276
129.78276
536.2201
536.2201
536.2201
381.92334
381.92334
381.92334
381.92334
381.92334
536.2201
536.2201
536.2201
381.92334
381.92334
536.2201
536.2201
536.2201
536.2201
536.2201
381.92334
381.92334
381.92334
536.2201
536.2201
32.453301
13.397447
)


871
(
0
411.8157
411.8157
411.8157
371.98886
119.63444
411.8157
411.8157
82.275603
411.8157
411.8157
411.8157
411.8157
411.8157
411.8157
384.77331
61.715186
334.96719
411.8157
314.73309
411.8157
411.8157
411.8157
90.802927
411.8157
411.8157
411.8157
411.8157
411.8157
411.8157
411.8157
411.8157
137.03737
183.14035
411.8157
411.8157
0
0
0
0
192.52877
77.064808
99.286929
79.676623
71.170943
471.50949
225.01038
149.90315
240.32269
70.884163
101.69672
127.82543
135.74176
110.37344
90.43582
95.923532
70.838946
89.327852
104.9812
91.558145
471.50949
471.50949
140.84095
471.50949
61.054291
61.054291
61.054291
61.054291
61.054291
61.054291
61.054291
61.054291
61.054291
61.054291
61.054291
61.054291
61.054291
61.054291
61.054291
61.054291
61.054291
182.99549
29.903681
32.586354
61.054291
61.054291
61.054291
61.054291
61.054291
61.054291
61.054291
61.054291
61.054291
61.054291
61.054291
61.054291
61.054291
61.054291
61.054291
34.554823
61.054291
61.054291
183.6734
36.2331
61.054291
61.054291
61.054291
61.054291
61.054291
61.054291
61.054291
61.054291
61.054291
61.054291
61.054291
61.054291
61.054291
87.621801
180.73102
61.054291
61.054291
61.054291
61.054291
61.054291
61.054291
61.054291
61.054291
136.69459
134.28682
61.054291
61.054291
61.054291
61.054291
61.054291
61.054291
61.054291
61.054291
61.054291
61.054291
88.515098
89.65566
90.633684
471.50949
188.47213
471.50949
471.50949
471.50949
471.50949
211.55223
471.50949
471.50949
471.50949
471.50949
411.8157
411.8157
411.8157
411.8157
411.8157
471.50949
411.8157
411.8157
411.8157
411.8157
411.8157
471.50949
411.8157
262.79469
100.72501
471.50949
471.50949
471.50949
411.8157
411.8157
471.50949
471.50949
471.50949
290.51348
224.63883
109.5473
114.61064
97.858742
471.50949
471.50949
471.50949
155.83903
411.8157
411.8157
411.8157
411.8157
411.8157
411.8157
411.8157
411.8157
471.50949
411.8157
411.8157
411.8157
411.8157
411.8157
411.8157
411.8157
471.50949
411.8157
471.50949
411.8157
411.8157
411.8157
411.8157
411.8157
471.50949
471.50949
411.8157
471.50949
471.50949
471.50949
471.50949
471.50949
471.50949
411.8157
411.8157
471.50949
471.50949
220.94253
130.32327
107.98746
471.50949
471.50949
471.50949
471.50949
471.50949
471.50949
471.50949
471.50949
180.34608
411.8157
411.8157
411.8157
411.8157
411.8157
411.8157
411.8157
411.8157
411.8157
411.8157
411.8157
411.8157
411.8157
471.50949
411.8157
411.8157
411.8157
411.8157
411.8157
411.8157
411.8157
411.8157
411.8157
411.8157
411.8157
411.8157
411.8157
411.8157
411.8157
471.50949
471.50949
471.50949
471.50949
411.8157
411.8157
411.8157
196.05243
471.50949
471.50949
411.8157
411.8157
411.8157
411.8157
411.8157
471.50949
471.50949
471.50949
213.54364
471.50949
172.10513
152.98522
133.07185
471.50949
471.50949
471.50949
471.50949
471.50949
471.50949
411.8157
411.8157
411.8157
411.8157
411.8157
411.8157
411.8157
411.8157
471.50949
471.50949
411.8157
411.8157
411.8157
411.8157
411.8157
411.8157
411.8157
411.8157
411.8157
471.50949
411.8157
411.8157
411.8157
471.50949
411.8157
411.8157
411.8157
411.8157
471.50949
411.8157
411.8157
411.8157
471.50949
411.8157
411.8157
411.8157
411.8157
411.8157
411.8157
411.8157
411.8157
411.8157
141.69186
471.50949
471.50949
471.50949
471.50949
411.8157
411.8157
471.50949
471.50949
471.50949
471.50949
95.415795
96.648959
211.34044
471.50949
411.8157
411.8157
411.8157
411.8157