/*--------------------------------*- C++ -*----------------------------------*\
  =========                 |
  \\      /  F ield         | OpenFOAM: The Open Source CFD Toolbox
   \\    /   O peration     | Website:  https://openfoam.org
    \\  /    A nd           | Version:  8
     \\/     M anipulation  |
\*---------------------------------------------------------------------------*/
/*   Windows 32 and 64 bit porting by blueCAPE: http://www.bluecape.com.pt   *\
|  Based on Windows porting (2.0.x v4) by Symscape: http://www.symscape.com   |
\*---------------------------------------------------------------------------*/
FoamFile
{
    version     2.0;
    format      ascii;
    class       scalarListList;
    location    "constant/vegetation";
    object      F;
}
// * * * * * * * * * * * * * * * * * * * * * * * * * * * * * * * * * * * * * //


418
(

1581
(
0.00011760731
0.00081484016
0.00024459835
0.0077212928
0.0064788342
0.0031422855
0.0009970056
0.0013687514
0.00046333706
0.00065726282
0.00069426604
0.00016544995
6.2863228e-05
0.00040987833
0.00017821563
0.00013926604
0.00053601765
9.1611487e-05
0.00037643642
8.9802769e-05
9.7640774e-05
0.00020876814
3.6089586e-05
4.904272e-05
9.5562623e-05
3.8828966e-05
2.4365422e-05
2.6056686e-05
2.8564868e-05
3.3059505e-05
1.7930148e-05
2.2158147e-05
0.0033077318
0.0074272916
0.0012724005
5.3635233e-05
2.9626097e-05
0.00012594289
4.1300294e-05
0.00011115804
0.00010936449
0.0001263769
5.6106532e-05
0.00010966725
5.4174787e-05
0.00013161595
0.00012901956
5.6062587e-05
3.4762885e-05
3.6273569e-05
3.7833129e-05
5.1318084e-05
3.8801042e-05
4.6134842e-05
2.4205184e-05
2.4568415e-05
2.4797691e-05
2.4650252e-05
2.4044886e-05
2.3423557e-05
3.2180647e-05
2.2813088e-05
2.5293513e-05
5.8513953e-05
4.910909e-05
3.6799201e-05
4.5519329e-05
2.6997569e-05
2.4851919e-05
2.6036878e-05
3.4372526e-05
2.9010731e-05
0.00011150092
2.7567208e-05
2.7424653e-05
2.6910968e-05
0.00011070346
2.7330284e-05
2.6719769e-05
0.00010192137
2.5521277e-05
0.00014300101
3.6771813e-05
4.4781651e-05
5.717213e-05
4.9587944e-05
4.8427897e-05
2.7371031e-05
3.4044634e-05
2.8590598e-05
2.4459326e-05
2.4346094e-05
2.4595708e-05
2.4467167e-05
2.4812932e-05
2.4713762e-05
2.5029878e-05
2.4761665e-05
2.4997186e-05
2.4892559e-05
2.4713435e-05
2.4953343e-05
2.4305559e-05
2.3854439e-05
2.4137137e-05
2.3636481e-05
2.379142e-05
2.396025e-05
8.2189171e-05
5.4851585e-05
6.1809655e-05
5.2858742e-05
5.3307082e-05
5.794659e-05
3.9774932e-05
3.9455638e-05
4.2658185e-05
4.929984e-05
4.2330564e-05
4.5811192e-05
2.5066859e-05
2.5013227e-05
2.5144233e-05
2.5840591e-05
2.5378e-05
2.5339641e-05
3.7148773e-05
3.2264342e-05
3.4804092e-05
3.1260489e-05
3.0523571e-05
3.2829056e-05
0.00013784265
0.00011718537
0.00013197534
0.0001317466
0.0001442101
0.00014453587
0.00014145361
0.00013071729
0.00014337574
2.755139e-05
3.1609264e-05
3.1777527e-05
2.7499253e-05
3.164488e-05
3.1724428e-05
2.7073667e-05
3.1010162e-05
3.1229881e-05
2.7213192e-05
3.1536517e-05
3.1390034e-05
2.6461263e-05
3.0782121e-05
3.0265816e-05
2.5935471e-05
2.6224743e-05
2.9498162e-05
3.9414755e-05
3.8708469e-05
4.1565502e-05
4.186759e-05
4.2549682e-05
4.3809839e-05
5.1836486e-05
5.2085119e-05
5.0701097e-05
2.7452448e-05
3.1227212e-05
2.8383135e-05
3.1842761e-05
3.5771976e-05
3.0440162e-05
2.7987729e-05
3.024584e-05
3.273993e-05
2.7735988e-05
0.00010672119
2.0273933e-05
2.3241676e-05
4.8440392e-05
5.1901531e-05
4.1330989e-05
2.1608391e-05
2.3287501e-05
2.8564935e-05
2.3682263e-05
2.3138722e-05
2.3809544e-05
2.7051903e-05
2.9610115e-05
4.0473203e-05
2.8247614e-05
2.6004405e-05
2.6559145e-05
5.3074707e-05
4.8365695e-05
4.7838669e-05
3.0172493e-05
3.1676995e-05
3.2260343e-05
5.9432056e-05
4.0592727e-05
4.5908074e-05
5.621913e-05
5.0591025e-05
5.0888229e-05
4.8865445e-05
5.539901e-05
4.9868764e-05
5.5666749e-05
5.011986e-05
5.0080398e-05
2.4426491e-05
2.4074578e-05
2.5166435e-05
5.2501782e-05
4.6622925e-05
4.7221108e-05
3.3892616e-05
3.6957905e-05
3.4500933e-05
5.0951469e-05
4.6078075e-05
4.5697934e-05
4.1056097e-05
3.9717145e-05
4.2791066e-05
5.6509734e-05
5.2828177e-05
5.1546342e-05
5.4654586e-05
4.879578e-05
4.9195982e-05
5.5994501e-05
5.046207e-05
5.0373899e-05
5.5062619e-05
4.9831113e-05
4.9541679e-05
5.5865666e-05
5.0063814e-05
5.0242289e-05
2.9096874e-05
2.7363331e-05
2.7269089e-05
2.9447653e-05
2.4814398e-05
2.599265e-05
4.7957347e-05
4.7557919e-05
4.7381854e-05
4.5448036e-05
4.6315669e-05
4.6314829e-05
3.1366717e-05
3.7246459e-05
3.3537314e-05
3.9157193e-05
3.7877753e-05
3.5518553e-05
4.490758e-05
4.0905831e-05
4.4003607e-05
4.963244e-05
4.534275e-05
4.9780507e-05
4.8381595e-05
4.9277403e-05
4.8752948e-05
4.9585628e-05
4.9355968e-05
4.9078785e-05
4.9943918e-05
5.0348087e-05
4.9885356e-05
4.9580409e-05
5.0239964e-05
4.9758025e-05
0.00036277038
0.0001619975
8.6225999e-05
4.3635617e-05
2.3461051e-05
0.000103344
0.00040587867
0.00029522416
5.1893534e-05
0.00041495225
0.00036107091
3.9800116e-05
0.00026141809
0.00015440694
0.00020396667
9.4185534e-05
0.00014407284
8.4875816e-05
7.8815898e-05
0.00018822242
0.00011165653
6.5650735e-05
3.229075e-05
3.5531749e-05
3.8124726e-05
2.1692431e-05
3.7098451e-05
4.2407806e-05
1.7802146e-05
8.0560141e-05
5.1998936e-05
7.2589402e-05
1.8851056e-05
2.6632404e-05
8.1300851e-05
5.7337654e-05
6.120246e-05
7.7550877e-05
5.9311846e-05
6.5094998e-05
3.2556588e-05
3.3190198e-05
3.3838877e-05
3.4677526e-05
6.8181598e-05
7.8064739e-05
6.6018362e-05
6.3973519e-05
6.2016185e-05
3.5649847e-05
3.494697e-05
3.4111279e-05
3.3438545e-05
6.8747306e-05
8.3139262e-05
7.0292329e-05
0.0002372328
6.7536127e-05
6.4497179e-05
6.5842516e-05
6.6993154e-05
8.3528495e-05
7.1700564e-05
3.5831189e-05
4.7787794e-05
3.602685e-05
3.4267851e-05
2.7150465e-05
3.9468489e-05
4.2592181e-05
0.00017712435
7.3035738e-05
6.753688e-05
7.2325834e-05
7.0659542e-05
6.6814155e-05
7.1515965e-05
6.1111151e-05
6.3385741e-05
6.0537374e-05
5.9181265e-05
6.2733701e-05
5.9875285e-05
3.7144711e-05
3.5440128e-05
7.3638117e-05
6.9279166e-05
7.4185894e-05
6.9780753e-05
7.5183498e-05
7.4670699e-05
6.159909e-05
6.505044e-05
6.2124326e-05
6.619501e-05
7.1340386e-05
6.3517094e-05
3.7344037e-05
3.6014407e-05
3.7561527e-05
4.5195383e-05
4.0397593e-05
6.0652597e-05
6.1150282e-05
6.1616873e-05
5.844651e-05
6.0209415e-05
5.7591745e-05
6.9699218e-05
6.3871561e-05
6.8399497e-05
0.00019854731
5.7737902e-05
3.5203272e-05
3.240141e-05
3.3916235e-05
3.2221956e-05
6.3807299e-05
6.1846102e-05
6.2319343e-05
7.6331386e-05
3.6328813e-05
3.742389e-05
3.7906874e-05
3.2575158e-05
3.4456801e-05
3.2769862e-05
7.9728285e-05
7.4856342e-05
7.4110063e-05
5.3721391e-05
5.4627549e-05
9.4577271e-05
5.9191421e-05
7.0410239e-05
2.5776574e-05
2.9759265e-05
2.9410837e-05
7.8839329e-05
7.2447806e-05
7.3231435e-05
5.5487316e-05
5.891278e-05
5.6569837e-05
7.7977428e-05
7.1694349e-05
7.1028027e-05
6.0909889e-05
6.2018897e-05
6.6067778e-05
2.9677055e-05
2.947106e-05
3.1278788e-05
3.2720919e-05
3.1256055e-05
3.514166e-05
3.4105901e-05
3.5464761e-05
8.2029063e-05
7.545031e-05
7.6077591e-05
3.0865699e-05
8.264273e-05
7.7077844e-05
7.6604838e-05
8.3806981e-05
7.7498597e-05
7.779511e-05
3.091823e-05
3.0840208e-05
5.712125e-05
5.6057225e-05
3.1602229e-05
3.2947546e-05
3.139413e-05
3.183454e-05
3.3684688e-05
3.2038371e-05
3.4397082e-05
3.5155579e-05
3.3567752e-05
3.3258844e-05
0.00034081365
0.00058925477
0.00056316601
0.020667849
0.0016145933
0.0010072066
0.00069491634
0.0017481398
0.00060251232
0.0051301284
0.0061327375
0.0022782974
0.0035466007
2.5673875e-05
0.00020128303
0.00015985349
2.3371635e-05
0.0001469836
0.00021467525
8.4031572e-05
0.00021153576
8.4001353e-05
2.8965233e-05
0.00016354497
2.3104032e-05
2.3345987e-05
4.0369488e-05
4.5347283e-05
5.2695516e-05
4.7112045e-05
3.8818182e-05
3.4323459e-05
2.5962994e-05
3.28352e-05
8.5785694e-05
6.597083e-05
5.4666677e-05
6.192867e-05
0.00021049988
0.00015839779
3.2568858e-05
3.3856927e-05
0.00018780207
5.6557937e-05
5.0544673e-05
4.329445e-05
0.00017304939
4.8647071e-05
4.2435816e-05
4.0917062e-05
3.1323975e-05
3.0120738e-05
3.8661004e-05
2.7197302e-05
3.4539802e-05
4.1613607e-05
0.00013151396
3.6091569e-05
2.012033e-05
2.3966081e-05
2.6355181e-05
4.0704713e-05
0.00023008834
5.866515e-05
6.5433485e-05
8.4450589e-05
7.7745136e-05
6.9884408e-05
4.3978652e-05
4.5540279e-05
0.00024304522
7.8219156e-05
0.00012603627
0.00013541476
3.5838177e-05
4.197421e-05
3.72573e-05
3.6561925e-05
3.5188914e-05
4.3633876e-05
4.0240751e-05
3.8725445e-05
3.7977077e-05
3.9429149e-05
4.6738324e-05
5.0786561e-05
4.5052153e-05
4.1802267e-05
4.8925372e-05
4.3406008e-05
3.4466455e-05
3.7298993e-05
3.3141169e-05
2.782642e-05
2.8957495e-05
3.5796854e-05
3.0570337e-05
3.1850543e-05
2.6709694e-05
2.5550528e-05
2.3051847e-05
2.9410163e-05
2.6062284e-05
2.9251148e-05
3.1273628e-05
2.7827981e-05
0.00011701289
7.572272e-05
7.0813047e-05
4.9761168e-05
4.9059703e-05
7.1265974e-05
5.7485676e-05
6.1914272e-05
4.8607241e-05
4.710419e-05
4.8471279e-05
5.6727901e-05
5.0276865e-05
5.451043e-05
5.9023357e-05
5.2233114e-05
0.00018121542
2.5565404e-05
0.00019644361
5.4499457e-05
6.3506541e-05
6.1171081e-05
5.2497326e-05
5.6733354e-05
5.9013503e-05
4.5020673e-05
4.8522586e-05
5.0560678e-05
4.6804626e-05
5.4663653e-05
5.2491264e-05
3.2696371e-05
3.923819e-05
3.3386489e-05
3.9917163e-05
4.6701663e-05
4.4421835e-05
3.7893165e-05
3.6227425e-05
4.2008109e-05
6.0817488e-05
6.577166e-05
6.7849847e-05
6.2648458e-05
6.5831471e-05
6.9486194e-05
7.4887472e-05
7.8937006e-05
7.6387649e-05
6.6688985e-05
6.9856036e-05
7.9885412e-05
7.6976539e-05
4.7148657e-05
3.9886173e-05
4.3815343e-05
4.4324645e-05
2.2405998e-05
1.1738339e-05
2.0987718e-05
2.3318727e-05
3.0427946e-05
3.0315449e-05
8.3991639e-05
7.8091606e-05
7.7946579e-05
2.7215726e-05
3.9153424e-05
3.494371e-05
2.8728001e-05
3.0553143e-05
3.0734283e-05
8.3987237e-05
7.7083027e-05
7.7566838e-05
8.3962158e-05
7.8021195e-05
7.7960846e-05
2.774772e-05
3.1131173e-05
3.1366757e-05
2.7312915e-05
3.1004268e-05
3.1122048e-05
2.3592301e-05
3.3937197e-05
3.493318e-05
3.3604838e-05
7.7358591e-05
7.0109384e-05
7.6786894e-05
7.7390834e-05
7.1068496e-05
7.6985108e-05
3.4376354e-05
3.9322377e-05
3.4388648e-05
3.3637321e-05
3.8909403e-05
3.3949859e-05
2.3166571e-05
0.0029537047
0.0020183549
0.0031754338
0.00096525386
0.022238449
0.00021791461
0.00030474532
0.00021346938
0.00013224306
0.00010143284
0.00011594035
0.002832198
0.0031796969
0.00056031484
0.00066909632
0.00041360969
0.00059958406
0.15716468
0.0032356832
0.0048386663
0.018683695
0.024027003
0.0035996587
0.00063161012
0.00052249923
0.00062976793
0.014915092
0.00061701645
0.0028758008
0.0015032923
0.00065683252
0.0028581298
0.00057697512
0.00040016814
0.00018487853
0.00017464414
0.0001669691
0.00020404331
0.00017212406
0.00015249453
0.0069262974
0.04274365
0.18867338
0.012091097
0.028498562
0.0060597817
0.0011290905
0.0011842753
0.0011182475
0.00019525906
0.00025681896
0.00024214687
0.00027505092
0.00025926357
0.001172149
0.00027451114
0.0011740645
0.0011732593
0.0010884832
0.0010367063
0.0012281373
0.00034544633
0.00034077236
0.00032471981
0.00033778362
0.00023435539
0.00023122839
0.00028327868
0.00030215786
0.00023542149
0.00029240006
0.00031911502
0.00029913432
0.00029990731
0.00022371052
0.00027749431
0.00023670578
0.00027420827
0.00027183599
0.00027576509
0.00034785503
0.00034804598
0.00034568298
0.00035306588
0.00036659715
0.00034588424
0.00033497815
0.00029322305
0.00032884922
0.00031415713
0.0011609643
0.00032692958
0.0011815204
0.00033401403
0.00032982731
0.00034714617
0.0003313003
0.00034150371
0.0011426954
0.0002867054
0.00032772272
0.00034811845
0.0011505303
0.00033704215
0.0003446319
0.00034304966
0.00032972901
0.00033409364
0.00031283458
0.00030599787
0.00037182779
0.00035081291
0.00037386322
0.00035402396
0.0003769474
0.00037751764
0.00034616856
0.00034793689
0.00037036789
0.0003434454
0.00036807698
0.00033988982
0.0003594221
0.00036444139
0.00032865985
0.00031352908
0.00034140709
0.00035335634
0.00032217962
0.00034727631
0.0010941039
0.001012446
0.0009944616
0.0011391818
0.0012080058
0.0011868702
0.0012292533
0.0011920357
0.0012076996
0.00031345647
0.00027000743
0.00027313139
0.00031907193
0.00034921244
0.00035510239
0.00032333393
0.00036387114
0.00035968291
0.00033352989
0.00036958996
0.00037100939
0.00033205611
0.00036700745
0.00036946305
0.0003490913
0.00036652437
0.00033573572
0.00033119774
0.00036511742
0.00033255467
0.00035291723
0.00033594201
0.0003828911
0.00028243599
0.00031070485
0.00033861456
0.00031926213
0.00034997472
0.00030907443
0.00034576978
0.0003692394
0.00036845544
0.00034222561
0.00035962507
0.00036494506
0.00018040135
0.00028923579
0.0010795687
0.00024260432
0.0003121113
0.0002315177
0.00024920562
0.00029289388
0.00028121949
0.00026078091
0.00030855381
0.001009093
0.0002834968
0.0010586211
0.00023958882
0.00094043649
0.00022712795
0.00033887716
0.00028898209
0.00039548595
0.00054138074
0.00025251788
0.00025296654
0.00024231923
0.0002549633
0.00027817264
0.00022375066
0.00021743919
0.00023024741
0.00025175448
0.00024084937
0.00025012912
0.00027435475
0.00026282421
0.00028046162
0.0010009093
0.0011628037
0.00095546132
0.00027802733
0.0011418351
0.00024232857
0.00023943863
0.00026345669
0.00025839978
0.00027360486
0.00022592596
0.00023988063
0.00023518433
0.00023862199
0.00024425204
0.00024768791
0.00030963392
0.00030157064
0.0002570695
0.0003009585
0.00029806696
0.00028049584
0.00031879657
0.00029516386
0.00030186807
0.00034312054
0.00033332058
0.00029202891
0.00028276491
0.00032104901
0.00026621403
0.00027413994
0.00026816763
0.00022821011
0.00027749715
0.00024163448
0.00025057797
0.00025163059
0.00024594392
0.00024717082
0.00025097413
0.00028678154
0.00026695413
0.00030165408
0.00026520815
0.00029875734
0.00025857876
0.00026252932
0.00027558824
0.00032873821
0.00032345457
0.00026847623
0.00032590808
0.00031485446
0.00052024605
0.001964329
0.00089703351
0.00056714343
0.00030801124
0.0003018414
0.00026399898
0.00027517679
0.00026716387
0.00019538744
0.00017588296
0.0010748978
0.00029120202
0.00016706492
0.00031975059
0.0019338726
0.0014495078
0.0029313745
0.0018057022
0.0012184169
0.00028973564
0.00053485574
0.0081863379
0.0025550998
0.00029527586
0.00083742371
0.00088238555
0.0001592979
0.00089796749
0.00081989813
0.0077958074
0.0019313173
0.00015939063
0.00050601282
0.00061177284
0.00062210519
0.00015172579
0.001180586
0.0002643117
0.00030529022
0.00031528357
0.0009860062
0.00016254673
0.00060564731
0.00052069393
0.00044408374
0.00027432052
0.00028454442
0.00017856976
0.00066241447
0.00036882283
0.0011069611
0.00048208353
0.00053382865
0.001920851
0.00075272147
0.00068822501
0.00053033331
0.0013248277
0.00084289612
0.00031171911
0.0012257769
0.00098067235
0.00070832596
0.001445703
0.00051142292
0.00098718866
0.0013005878
0.00072305581
0.00067076191
0.00063169376
0.00046985964
0.0002500478
0.00024492823
4.8330164e-05
4.9269995e-05
4.2741915e-05
0.00028216085
0.00027436696
4.5276138e-05
2.5665551e-05
0.0002015874
4.140439e-05
0.00040715597
3.7830101e-05
0.00015032102
0.00015556206
6.8771951e-05
0.00020865264
4.8694922e-05
2.8879363e-05
2.3590687e-05
2.9377358e-05
3.0060935e-05
1.5550019e-05
9.2057795e-06
1.573876e-05
1.5044631e-05
1.0564796e-05
1.0776383e-05
0.00066644547
4.1347219e-05
3.8851214e-05
1.7852969e-05
1.0906042e-05
4.4849677e-05
1.4288775e-05
1.8368514e-05
4.2464713e-05
1.7966698e-05
4.5680074e-05
1.8354198e-05
4.1578914e-05
4.2446324e-05
3.4091417e-05
4.0565715e-05
3.4403924e-05
4.2029896e-05
1.260748e-05
1.2981233e-05
1.3323807e-05
1.740961e-05
1.3760221e-05
1.6092372e-05
1.9252277e-05
1.6662455e-05
1.5609326e-05
4.3580734e-05
4.0611295e-05
4.9122371e-05
1.5328923e-05
1.8772282e-05
1.6763996e-05
1.6400337e-05
1.3584865e-05
2.1558058e-05
4.2806961e-05
4.2180652e-05
4.2304899e-05
2.7122908e-05
1.8229807e-05
2.0605184e-05
1.7747263e-05
1.8134665e-05
1.9510072e-05
1.6948511e-05
2.7810234e-05
2.6685505e-05
5.9602508e-05
3.9713074e-05
3.7270096e-05
3.2044824e-05
3.8514453e-05
3.355302e-05
4.8120967e-05
4.2018189e-05
4.6399537e-05
4.6303385e-05
4.9562268e-05
4.9755434e-05
4.9078723e-05
4.6077422e-05
4.9512239e-05
1.4486718e-05
1.455011e-05
1.5142539e-05
1.7369117e-05
1.762281e-05
1.6964749e-05
4.0393638e-05
4.1149952e-05
1.6623559e-05
1.7512722e-05
1.4346448e-05
4.1086053e-05
1.7739113e-05
1.6251916e-05
3.9791084e-05
3.9523943e-05
1.6138713e-05
1.1049517e-05
1.1550157e-05
1.1699828e-05
5.0113936e-05
2.041674e-05
3.2627648e-05
1.4152235e-05
3.8469538e-05
1.5899859e-05
1.8414143e-05
4.2466661e-05
1.6729476e-05
4.0759045e-05
1.6835856e-05
4.0682527e-05
1.6716434e-05
1.822102e-05
1.6931363e-05
1.8275236e-05
1.694571e-05
1.6975976e-05
4.0811411e-05
1.7627585e-05
3.8922185e-05
1.5874082e-05
3.9181746e-05
1.6000507e-05
3.3794657e-05
3.4919006e-05
1.2242125e-05
1.315007e-05
1.2392622e-05
4.1035739e-05
1.7386567e-05
3.8719052e-05
1.5770775e-05
3.8569227e-05
1.5729493e-05
3.4445154e-05
3.5825644e-05
3.7141734e-05
1.443202e-05
1.4000907e-05
1.494859e-05
1.8527389e-05
4.2507136e-05
1.7520544e-05
4.0332589e-05
1.7070038e-05
4.0523983e-05
1.8067618e-05
4.1820383e-05
1.6338547e-05
3.9973624e-05
4.0187997e-05
1.6421443e-05
1.8340335e-05
4.2440737e-05
1.6686679e-05
4.076297e-05
4.0769899e-05
1.6665025e-05
4.2021135e-05
1.8152249e-05
4.0510664e-05
4.0364651e-05
1.6552062e-05
1.6492705e-05
4.2393738e-05
1.8315079e-05
4.0627609e-05
4.0715206e-05
1.6599624e-05
1.6636412e-05
1.6276895e-05
1.6382199e-05
1.6143159e-05
4.0870392e-05
3.9592961e-05
4.012367e-05
1.5620125e-05
1.601468e-05
1.5845464e-05
1.1429932e-05
1.3368405e-05
1.2100576e-05
1.3922117e-05
1.3404854e-05
1.2691451e-05
3.9342946e-05
3.7303894e-05
3.8630546e-05
1.5511957e-05
1.4339774e-05
1.5282536e-05
1.6585549e-05
1.5326221e-05
1.6641649e-05
1.6364744e-05
1.6806828e-05
1.6440917e-05
1.6871508e-05
1.6565596e-05
1.6508141e-05
1.6690427e-05
1.7030877e-05
1.6678203e-05
1.661219e-05
1.7008e-05
1.6650061e-05
2.4905749e-05
1.8493217e-05
3.7222751e-05
0.00018611944
9.8712266e-05
3.2042346e-05
0.00029340281
3.1937504e-05
2.4156852e-05
3.1051681e-05
1.3167188e-05
1.4739047e-05
1.5132893e-05
1.1854507e-05
2.94959e-05
0.00011540646
2.8945274e-05
0.00011119874
0.00011792392
0.00011771256
3.1543778e-05
3.4606577e-05
3.1061273e-05
3.3945226e-05
2.7222604e-05
2.7861318e-05
2.9653376e-05
2.9062165e-05
2.7111966e-05
2.6373799e-05
0.00011374758
0.00010477238
0.00010824266
0.00010101344
2.3970153e-05
2.4437057e-05
3.1777047e-05
2.3494912e-05
2.3010739e-05
3.1131267e-05
0.00010366266
2.8485426e-05
0.00011885085
0.00010678483
0.00011912648
0.00010774764
2.634664e-05
3.0232786e-05
2.6859566e-05
2.4892189e-05
2.7360045e-05
2.5825086e-05
2.8444538e-05
2.5293218e-05
2.2016119e-05
2.2519314e-05
2.7791497e-05
2.416548e-05
2.4746043e-05
2.1488253e-05
2.3512175e-05
3.563382e-05
3.0419096e-05
3.4924501e-05
3.3864381e-05
2.9396223e-05
2.8590857e-05
3.2584145e-05
2.9856767e-05
3.0034182e-05
3.0406699e-05
2.9293451e-05
2.8382958e-05
2.8702876e-05
3.0557657e-05
3.145723e-05
3.094188e-05
2.781013e-05
2.7433254e-05
2.8078358e-05
3.1164482e-05
3.5304016e-05
3.174435e-05
3.2307595e-05
3.0561299e-05
3.2942462e-05
2.9890936e-05
3.1718636e-05
2.8053918e-05
2.891705e-05
0.0045664992
0.0035433299
0.0028113456
0.00053988658
0.00018647439
0.00015897998
2.6819464e-05
5.5818302e-05
6.6361668e-05
5.8222989e-05
2.4918885e-05
8.7484004e-05
1.4576728e-05
2.3992829e-05
6.5560145e-06
8.4729989e-06
0.00053925921
0.00057898024
0.0010784858
3.9846477e-05
3.9526192e-05
3.9330563e-05
4.4349384e-05
4.6189578e-05
9.1203986e-06
9.2074199e-06
9.2653979e-06
9.2269902e-06
9.0816013e-06
8.925311e-06
1.1785506e-05
8.7319917e-06
9.5658183e-06
1.0115201e-05
9.2857122e-06
9.7453315e-06
1.2311599e-05
1.0745777e-05
1.303661e-05
4.0022111e-05
1.0177478e-05
1.014364e-05
1.0022231e-05
3.9845641e-05
1.012148e-05
9.9757094e-06
3.7298441e-05
9.6170014e-06
1.0105633e-05
1.2173674e-05
1.0576862e-05
1.3004672e-05
9.3263254e-06
9.1542449e-06
9.359599e-06
9.1832488e-06
9.4124035e-06
9.3883057e-06
9.4673558e-06
9.2547791e-06
9.4577045e-06
9.431715e-06
9.2423012e-06
9.446562e-06
9.2889158e-06
9.0336656e-06
9.2483041e-06
8.9775774e-06
9.1700644e-06
9.2065778e-06
9.4813569e-06
9.3487936e-06
9.5133439e-06
9.7902447e-06
9.4906556e-06
9.5926601e-06
1.3334972e-05
1.1685094e-05
1.2630819e-05
1.1597155e-05
1.1178953e-05
1.2045646e-05
1.4122793e-05
1.3825519e-05
1.4982915e-05
1.4673088e-05
1.5918299e-05
1.0174615e-05
1.1522792e-05
1.1587513e-05
1.0161593e-05
1.1558133e-05
1.157557e-05
1.0060906e-05
1.1407649e-05
1.1461495e-05
1.009387e-05
1.153284e-05
1.1498651e-05
9.9067258e-06
1.1352099e-05
1.1195421e-05
9.7400545e-06
9.7705751e-06
1.094586e-05
1.0139439e-05
1.1385005e-05
1.0357779e-05
1.1513662e-05
1.2771886e-05
1.0990215e-05
1.034382e-05
1.1060683e-05
1.1953377e-05
1.3786991e-05
1.3674425e-05
1.4517704e-05
1.0308916e-05
3.878243e-05
7.836583e-06
8.8867779e-06
8.4481625e-06
8.971566e-06
1.1134427e-05
9.1586116e-06
8.8801422e-06
9.2408025e-06
1.0259212e-05
1.1105008e-05
1.5371814e-05
1.0446719e-05
9.7598799e-06
9.9205625e-06
9.2576811e-06
9.1774344e-06
9.4954811e-06
1.0709506e-05
1.0126266e-05
1.0138606e-05
1.1010133e-05
9.4211488e-06
9.7644548e-06
0.00088269135
0.0016116179
0.0006569862
0.0012807801
0.00029141579
0.00082686874
0.00061846838
0.0026912686
0.028922496
0.0012302155
0.00058800598
0.0019042598
0.0043242823
0.00028181091
7.5440586e-05
0.00078674964
0.00079675294
0.00055042608
0.00077720732
0.0015038573
0.00091421238
0.00063110501
0.00021971061
0.00083314186
0.00043329953
0.00014570843
0.0013543389
0.0011698152
0.0010260154
0.00063638709
0.0033070949
0.040406174
0.00047704044
0.00072552537
0.00024289626
0.0024160886
0.00066482623
0.00093897404
0.00086419845
0.00055859527
0.0022516056
0.0011361098
0.00057168902
0.00013334903
0.00034276017
0.00014334852
0.00049833514
0.00084297798
0.0006329419
0.00087489287
0.00016160267
0.00035944194
0.00063806485
0.00037721275
0.0014150434
0.00052632638
0.00064337776
0.00088609793
0.00063455849
0.0027455846
0.0015460728
0.0033687167
0.0046519931
0.00095389571
0.0012349325
0.00028245563
0.00035741725
0.000469531
0.00060436998
0.0038965
0.0010295837
0.0034364704
0.00084422883
0.0025004969
0.00050301445
0.00051156953
0.00032115136
0.00094771028
0.0022169008
0.00099917845
0.00040631335
0.00026039801
0.00078603741
0.015493863
0.0019449976
0.0010257405
0.0011669395
0.00047442691
0.0017613615
0.00083576886
0.00051507661
0.00065418729
0.0018082013
0.00069523914
0.00054758817
0.00032964989
9.7168641e-05
0.00037855957
0.0002872678
0.00062097731
0.00073205652
0.00054295463
0.00026502062
0.001420205
0.00079514757
0.0016413417
0.00066955934
0.00046681446
0.00031519747
0.00046450172
0.0060192536
0.0036273093
0.0036777034
0.0027812773
0.00070809191
0.00064582991
0.00090823753
0.00076937921
0.00039568187
0.001161607
0.00061733781
0.00024131158
0.00053827939
0.00083235969
0.0012418055
0.000285581
)


1954
(
0.0007443193
0.00014884583
0.00032852846
0.0013837479
0.00036564651
0.016438531
0.012972596
0.016051289
0.0041471956
0.0054297789
0.0017411068
0.0021083133
0.0023171808
0.00046999625
0.00019610337
0.0014356472
0.00059851445
0.00042637678
0.0015750633
0.00028182498
0.001277531
0.00027378231
0.00029633693
0.00068751374
0.00011107692
0.00015100802
0.00028353944
0.00011892421
7.2837751e-05
7.4624779e-05
8.446105e-05
9.7038807e-05
5.3626618e-05
6.6448932e-05
0.023139236
0.024960146
0.0035229192
0.00014035552
7.2756481e-05
0.00033660123
9.7380955e-05
0.00032130413
0.00029830034
0.000373684
0.00016345088
0.00032172665
0.00014373388
0.00038309335
0.00035311938
0.00016175323
8.8992697e-05
8.826284e-05
9.6159464e-05
0.00012673651
9.3896934e-05
0.00011674786
6.46579e-05
6.7495815e-05
7.0308671e-05
6.8302909e-05
6.3586639e-05
5.9995077e-05
8.2368252e-05
5.5953502e-05
6.4302514e-05
0.00017592744
0.00014952214
0.00011120163
0.0001386333
7.8797986e-05
7.0935689e-05
7.5613422e-05
0.0001033504
8.5424816e-05
0.00031673647
7.8772783e-05
7.6515427e-05
7.2281538e-05
0.0003084148
7.5577133e-05
7.1023592e-05
0.00026552975
6.5634614e-05
0.00042454097
0.00011046652
0.00013551359
0.00017072699
0.00014650441
0.00014648026
7.8754678e-05
0.00010178798
8.3755763e-05
6.4921875e-05
6.5669838e-05
6.5897729e-05
6.6617143e-05
6.7662242e-05
6.6812939e-05
7.0352486e-05
6.9703743e-05
6.977777e-05
6.8440069e-05
6.9036662e-05
6.9144656e-05
6.3891604e-05
6.2431911e-05
6.2817673e-05
6.1205483e-05
6.0641636e-05
6.1719398e-05
0.00024880559
0.00016598549
0.00018825689
0.00016060468
0.00016326447
0.00017714703
0.00012081922
0.00011969436
0.00013010557
0.00015100722
0.00012875783
0.00014011845
7.0909946e-05
7.184067e-05
7.15517e-05
7.4303912e-05
7.3308202e-05
7.2501218e-05
0.00011226031
9.6430264e-05
0.00010452991
9.2497985e-05
9.0594201e-05
9.7906196e-05
0.00036770308
0.00030575138
0.00034307849
0.00037644527
0.00042091467
0.00041368388
0.00038689952
0.00036587571
0.00040152391
7.8141443e-05
9.1000221e-05
9.0753267e-05
7.7374513e-05
8.8842137e-05
8.9880111e-05
7.3455974e-05
8.3686031e-05
8.5198267e-05
7.4555129e-05
8.7752071e-05
8.6472176e-05
6.9584655e-05
8.2209202e-05
7.9904994e-05
6.7455728e-05
6.7686413e-05
7.7031947e-05
0.00011884469
0.00011547065
0.00012443673
0.00012655435
0.00012782892
0.00013144572
0.00015644092
0.00015636342
0.00015188495
7.9497656e-05
9.0520538e-05
8.2800799e-05
9.4656109e-05
0.00010625329
8.9947645e-05
8.1534971e-05
8.9299738e-05
9.6111874e-05
6.8181828e-05
0.00028459675
4.9608396e-05
5.8867975e-05
0.00012947238
0.00013009263
0.00010604459
5.2647898e-05
5.7634527e-05
7.0363848e-05
5.9715693e-05
5.7942107e-05
5.9378261e-05
7.8147241e-05
8.6870531e-05
0.00011748722
7.0366147e-05
6.3929957e-05
6.614164e-05
0.00013694451
0.00012765038
0.00012451871
7.5112318e-05
7.7639751e-05
8.0176781e-05
0.00014217708
9.6758932e-05
0.00011104039
0.00016525462
0.00014836818
0.00015056099
0.00013225668
0.00015282439
0.00014008115
0.00015542763
0.00014680954
0.00014221797
6.0004643e-05
5.9762957e-05
6.2600837e-05
0.00013353431
0.00011793476
0.00012118262
8.2817465e-05
9.1237975e-05
8.5509356e-05
0.00012395235
0.00011486123
0.0001122298
9.8675256e-05
9.753502e-05
0.00010437722
0.00016748487
0.00015876894
0.0001537578
0.00014696454
0.00013054494
0.00013336459
0.00015989745
0.00014659481
0.00014486485
0.00015000033
0.00013852546
0.00013603106
0.00015779227
0.00014083189
0.00014294277
7.3447588e-05
6.9923253e-05
6.8786637e-05
7.512436e-05
6.2343657e-05
6.5465258e-05
0.00012744499
0.00012537124
0.00012420958
0.00011584411
0.00012051365
0.00011973709
7.9157044e-05
9.5254152e-05
8.4522052e-05
9.9926931e-05
9.4870544e-05
8.9292221e-05
0.00011282712
0.000101941
0.00010894245
0.00014623682
0.00013507468
0.00014793791
0.00013029592
0.00013513249
0.00013300826
0.00013759189
0.00013801308
0.00013558722
0.00014580535
0.00014601807
0.00014420068
0.00014025904
0.00014427604
0.00014232993
0.00097569334
0.00042709933
0.00022916356
0.00045211058
0.00025267234
0.00096835139
0.00012344473
0.00043449431
0.00015364682
0.00032712443
0.00012420146
0.00013357312
0.00033122231
0.00031724336
0.00025322568
9.6605844e-05
7.8698405e-05
9.4375525e-05
6.4855926e-05
7.4019395e-05
8.4991474e-05
0.00010879532
0.00011101791
5.382488e-05
6.9674933e-05
9.1506982e-05
5.0884946e-05
0.00020062503
0.00011323582
7.0664012e-05
6.4890793e-05
6.4006703e-05
7.0291213e-05
0.00010206998
6.8065259e-05
7.7072509e-05
5.4053945e-05
4.3076144e-05
5.095983e-05
4.0778886e-05
4.7850948e-05
0.00020924717
8.3745079e-05
0.00010398613
7.8921069e-05
7.6027604e-05
5.8428905e-05
7.1864738e-05
5.2424221e-05
0.00018881224
0.00018884314
0.00016112191
8.5155063e-05
0.00011927412
8.9118986e-05
0.00027017169
8.3171042e-05
7.7254752e-05
7.3329475e-05
8.19823e-05
0.00012091505
9.1523965e-05
4.3469476e-05
3.8851974e-05
5.3159872e-05
4.0487243e-05
0.00018560417
0.00016674719
0.00016946059
9.2980672e-05
8.2231349e-05
9.1214334e-05
8.7367595e-05
8.061989e-05
8.9319171e-05
7.0427671e-05
7.4717945e-05
6.923773e-05
6.6616063e-05
7.3329557e-05
6.7944939e-05
9.4602408e-05
8.6512731e-05
9.6143212e-05
8.7818667e-05
9.9046676e-05
9.758715e-05
7.1513176e-05
7.8507478e-05
7.2632461e-05
8.0459804e-05
8.4385719e-05
7.4748469e-05
6.7867293e-05
6.7973167e-05
6.6670016e-05
6.8895086e-05
7.1864821e-05
6.9879965e-05
6.5243252e-05
6.8517521e-05
6.3741516e-05
8.5288024e-05
7.4873465e-05
8.2789489e-05
0.00021392947
0.00020116401
0.00019759326
0.00022605061
0.00018757385
6.3220018e-05
6.5811092e-05
6.4800354e-05
4.9752062e-05
7.5961081e-05
7.2772247e-05
7.0955721e-05
7.1117794e-05
0.00010131384
5.3349936e-05
4.5312558e-05
4.772617e-05
4.2540915e-05
0.00010866945
9.9014224e-05
9.7036033e-05
5.5113927e-05
5.6961611e-05
5.8409164e-05
0.00012125201
7.2052569e-05
8.7034649e-05
5.2055213e-05
4.8120544e-05
4.9219897e-05
0.00010624701
9.2856619e-05
9.488252e-05
6.0332162e-05
6.6409379e-05
6.2063789e-05
0.00010135579
9.0864196e-05
8.8956979e-05
7.1958591e-05
7.1948919e-05
7.9040681e-05
4.5520489e-05
4.4041883e-05
4.6575702e-05
3.8620361e-05
4.1619788e-05
0.00011542927
0.00010078183
0.0001025851
0.00011744667
0.00010579681
0.00010423863
0.00012235437
0.00010725538
0.00010850853
5.7232505e-05
6.2063289e-05
6.0426664e-05
5.3924298e-05
5.615758e-05
5.1233889e-05
5.3785627e-05
4.6280575e-05
4.8951408e-05
4.3293754e-05
0.026882853
0.0018167068
0.0013232754
0.00090114
0.0020345643
0.00081357389
0.0073089653
0.01219803
0.0035924388
0.0045679962
2.0898733e-05
0.0002205513
0.00015184365
1.9279599e-05
0.00013428121
0.00024926985
0.00012544354
0.00024327168
0.00012454273
2.3833852e-05
0.00014877746
1.9113516e-05
3.821677e-05
4.5845471e-05
5.9155548e-05
4.8796423e-05
3.6026678e-05
3.018118e-05
2.1518065e-05
2.8406346e-05
0.00013062709
8.7614394e-05
6.3222225e-05
7.9161015e-05
0.00022897386
0.00014993741
3.0904178e-05
3.2805682e-05
0.00019526738
6.3343752e-05
5.2247758e-05
4.0918419e-05
0.00017159882
4.9088833e-05
4.7790706e-05
4.4790325e-05
2.9136761e-05
2.7491078e-05
3.3288143e-05
2.251491e-05
2.9846467e-05
3.8560614e-05
0.00011606745
3.1697386e-05
1.6691392e-05
2.0149712e-05
3.9716196e-05
5.872943e-05
0.00028482524
6.7678732e-05
8.3379187e-05
0.00012814401
0.00010128827
9.2518134e-05
5.1032788e-05
5.4539333e-05
0.00029751387
0.00010138478
0.00011076447
0.0001184327
3.3971587e-05
4.0572229e-05