/*--------------------------------*- C++ -*----------------------------------*\
  =========                 |
  \\      /  F ield         | OpenFOAM: The Open Source CFD Toolbox
   \\    /   O peration     | Website:  https://openfoam.org
    \\  /    A nd           | Version:  8
     \\/     M anipulation  |
\*---------------------------------------------------------------------------*/
/*   Windows 32 and 64 bit porting by blueCAPE: http://www.bluecape.com.pt   *\
|  Based on Windows porting (2.0.x v4) by Symscape: http://www.symscape.com   |
\*---------------------------------------------------------------------------*/
FoamFile
{
    version     2.0;
    format      ascii;
    class       labelListList;
    location    "constant/vegetation";
    object      globalFaceFaces;
}
// * * * * * * * * * * * * * * * * * * * * * * * * * * * * * * * * * * * * * //


418
(

1581
(
13
37
38
441
442
445
446
447
448
449
450
451
452
453
454
455
456
457
458
459
460
461
462
463
464
465
466
467
468
469
470
471
472
473
474
484
485
486
487
488
489
490
491
492
493
494
495
496
497
498
499
500
501
502
503
504
505
506
507
508
509
510
511
512
513
514
515
516
517
518
519
520
524
525
526
527
528
529
530
531
532
533
534
535
536
537
538
539
540
541
546
547
548
549
550
551
552
553
554
555
556
557
558
559
560
561
562
563
564
565
566
567
568
569
570
571
572
573
574
575
576
577
578
579
580
581
584
585
586
587
588
589
590
591
592
594
595
596
597
598
599
605
606
607
608
609
610
611
612
613
614
615
616
617
618
619
620
621
622
623
624
625
626
627
628
629
630
631
632
633
634
635
636
637
638
639
640
646
647
648
649
650
651
652
653
654
655
656
657
658
664
666
667
670
671
672
673
674
675
676
677
678
679
680
681
682
683
684
685
686
687
688
689
690
691
692
693
710
711
712
713
714
715
716
717
718
719
720
721
738
739
740
741
742
743
744
745
746
747
748
749
750
751
752
763
764
765
766
767
768
772
773
774
775
776
777
778
779
780
781
782
783
784
785
786
787
788
789
790
791
792
793
794
795
796
797
798
799
800
801
802
805
809
811
812
813
814
815
816
818
819
822
823
824
825
826
827
828
830
833
834
836
837
838
841
844
845
846
847
848
849
851
856
860
863
868
869
870
871
872
883
884
886
887
890
891
892
893
895
902
904
905
907
908
909
910
911
912
913
914
915
916
917
918
919
920
921
922
923
924
937
939
940
941
942
943
944
945
946
947
948
949
950
951
952
957
958
959
960
961
962
963
964
965
966
967
968
969
970
971
973
974
978
981
983
984
985
986
987
988
989
993
998
1008
1010
1011
1012
1013
1015
1016
1017
1018
1019
1020
1021
1022
1023
1030
1031
1032
1034
1035
1036
1037
1038
1045
1046
1047
1054
1055
1056
1057
1058
1059
1060
1061
1062
1063
1064
1065
1073
1074
1075
1076
1077
1081
1082
1083
1084
1085
1086
1089
1090
1091
1092
1093
1094
1095
1097
1098
1103
1104
1117
1118
1119
1120
1121
1122
1124
1127
1128
1129
1134
1135
1147
1150
1172
1173
1174
1175
1176
1541
1542
1543
1544
1545
1546
1547
1548
1549
1553
1554
1557
1558
1559
1560
1571
1572
1573
1574
1575
1576
1577
1578
1579
1580
1586
1587
1588
1589
1591
1592
1593
1594
1595
1596
1597
1598
1599
1600
1601
1602
1603
1604
1605
1606
1607
1608
1609
1610
1611
1612
1620
1621
1622
1623
1624
1625
1626
1627
1628
1629
1633
1634
1635
1636
1653
1654
1655
1656
1657
1658
1659
1660
1661
1662
1663
1664
1665
1666
1667
1668
1669
1670
1671
1672
1673
1674
1675
1676
1677
1678
1679
1680
1681
1682
1683
1684
1685
1686
1687
1688
1689
1690
1691
1692
1693
1694
1695
1696
1697
1698
1699
1700
1711
1725
1739
1740
1741
1742
1743
1744
1745
1746
1747
1748
1749
1750
1751
1752
1753
1754
1755
1756
1757
1758
1759
1760
1761
1762
1763
1764
1765
1766
1767
1768
1769
1771
1772
1773
1774
1775
1776
1777
1842
1843
1844
1845
1846
1847
1848
1849
1850
1851
1852
1853
1854
1855
1856
1857
1858
1859
1860
1861
1862
1863
1864
1865
1866
1867
1868
1869
1870
1898
1899
1900
1909
1910
1911
1918
1919
1920
1921
1922
1923
1924
1925
1926
1927
1971
1972
1973
1974
2366
2372
2375
2381
2382
2384
2390
2393
2394
2615
2618
2623
2624
2629
2630
2631
2632
2633
2634
2635
2636
2637
2638
2639
2640
2641
2642
2643
2644
2645
2646
2647
2648
2649
2650
2651
2652
2653
2654
2655
2656
2657
2666
2667
2668
2669
2670
2671
2674
2675
2678
2681
2682
2683
2684
2685
2686
2693
2694
2695
2696
2697
2698
2699
2700
2701
2702
2703
2704
2705
2706
2707
2713
2714
2715
2718
2719
2720
2721
2722
2723
2728
2729
2730
2731
2732
2733
2734
2735
2736
2737
2745
2746
2747
2754
2755
2756
2757
2758
2759
2773
2774
2775
2776
2777
2778
2779
2780
2781
2784
2785
2786
2787
2788
2789
2790
2791
2792
2793
2794
2795
2796
2797
2798
2799
2800
2818
2819
2820
2826
2827
2828
2829
2830
2831
2839
2840
2841
2846
2847
2848
2849
2850
2851
2852
2853
2854
2855
2856
2857
2864
2865
2866
2867
2868
2869
2870
2871
2872
2881
2882
2883
2884
2885
2886
2887
2888
2889
2890
2891
2892
2921
2922
2923
2924
2925
2926
2927
2928
2929
2930
2931
2932
2933
2934
2935
2936
2938
2939
2940
2941
2942
2943
2944
2945
2946
2947
2948
2949
2950
2951
2952
2953
2954
2955
2964
2965
2966
2967
2968
2969
2970
2971
2972
2973
2974
2975
2976
2977
2978
2979
2980
2981
2982
2984
2985
2986
2990
2991
2992
2994
2995
2996
2997
2998
2999
3000
3001
3002
3010
3011
3012
3013
3014
3015
3016
3017
3018
3019
3020
3021
3022
3023
3024
3029
3030
3031
3032
3033
3034
3045
3046
3047
3048
3049
3050
3051
3052
3053
3054
3055
3058
3059
3060
3063
3383
3384
3385
3386
3388
3390
3391
3392
3393
3394
3395
3397
3398
3399
3400
3401
3402
3403
3404
3405
3406
3407
3408
3409
3410
3411
3412
3413
3414
3415
3416
3417
3418
3419
3421
3422
3423
3424
3425
3428
3430
3433
3434
3437
3438
3442
3445
3446
3447
3448
3449
3453
3454
3455
3457
3458
3461
3464
3465
3466
3467
3468
3469
3470
3471
3472
3473
3474
3475
3476
3477
3478
3479
3480
3481
3482
3483
3484
3485
3487
3488
3489
3490
3491
3492
3493
3500
3503
3505
3506
3507
3508
3509
3511
3512
3513
3514
3515
3518
3521
3523
3524
3525
3528
3529
3530
3531
3532
3533
3534
3535
3536
3537
3545
3550
3551
3552
3553
3554
3555
3556
3562
3566
3574
3585
3586
3587
3588
3589
3590
3591
3592
3593
3594
3595
3596
3597
3598
3599
3611
3612
3613
3614
3615
3616
3617
3618
3619
3625
3626
3627
3628
3629
3630
3637
3639
3640
3641
3642
3646
3647
3648
3649
3650
3651
3655
3656
3657
3658
3659
3660
3661
3662
3663
3664
3665
3666
3667
3668
3669
3670
3671
3672
3673
3674
3675
3676
3677
3678
3679
3680
3681
3682
3683
3685
3686
3687
3688
3689
3690
3691
3692
3693
3694
3695
3696
3697
3698
3699
3700
3701
3702
3703
3704
3705
3706
3707
3708
3709
3710
3711
3712
3713
3714
3715
3716
3717
3718
3719
3720
3721
3722
3723
3724
3725
3726
3727
3728
3729
3733
3734
3735
3738
3739
3741
3742
3743
3744
3751
3752
3753
3754
3755
3756
3757
3758
3759
3760
3761
3762
3763
3764
3765
3769
3770
3771
3775
3776
3777
3781
3782
3783
3787
3788
3789
3805
3808
3810
3811
3812
3816
3822
3824
3826
3827
3829
3830
3831
3832
3834
3839
3842
3846
3847
3850
3851
3853
3854
3863
3864
3865
3867
3869
3870
3872
3876
3880
3881
3882
3883
3884
3887
3890
3891
3895
3896
3897
3901
3909
3910
3911
3912
3913
3914
3916
3919
3920
3921
3922
3923
3924
3925
3926
3927
3928
3933
3951
3959
3960
3961
3962
3963
3964
3971
3972
3973
3980
3981
3982
3989
3990
3991
4001
4002
4003
4026
4027
4028
4031
4041
4042
4043
4044
4045
4046
4087
4088
4089
4092
4093
4094
4095
4096
4097
4101
4103
4104
4110
4111
4116
4117
4123
4124
4125
4131
4132
4136
4138
4141
4142
4143
4144
4145
4146
4147
4148
4149
4150
4151
4152
4153
4154
4155
4158
4161
4162
4163
4164
4165
4166
4167
4168
4169
4171
4172
4173
4177
4178
4179
4180
4181
4182
4183
4184
4185
4186
4187
4188
4189
4190
4191
4192
4193
4194
4195
4196
4197
4198
4199
4200
4201
4204
4205
4206
4207
4208
4209
4210
4211
4212
4213
4214
4225
4226
4227
4228
4229
4230
4231
4232
4233
4234
4235
4236
4237
4238
4239
4240
4241
4242
4243
4244
4245
4246
4247
4248
4249
4250
4251
4256
4257
4258
4259
4260
4261
4262
4285
4286
4288
4292
4293
4296
4332
4334
4335
4346
4347
4348
4365
4366
4367
4426
4427
4428
4429
4430
4431
4502
4503
4979
4980
4981
4982
4983
5351
5352
5353
5354
5355
5356
5357
5358
5359
5360
5361
5362
5363
5364
5365
5366
5367
5368
5369
5370
5371
5372
5373
5374
5375
5376
5377
5379
5380
5381
5382
5383
5384
5385
5386
5388
5390
5391
5392
5393
5394
5395
5396
5397
5398
5399
5403
5404
5405
5407
5408
5414
5417
5418
5419
5420
5421
5422
5441
5456
5463
5464
5465
5466
5467
5468
5469
5470
5471
5472
5474
5475
5478
5479
5482
5483
5490
5697
5698
5699
5700
5701
5703
5706
5707
5708
5711
5722
5723
5729
5730
6000
6001
6002
6004
6005
6012
6015
6016
6019
6020
6022
6023
6025
6026
6027
6028
6030
6031
6036
6037
6038
6045
6046
6047
6057
6062
6063
6065
)


1954
(
3
10
13
37
38
441
442
445
446
447
448
449
450
451
452
453
454
455
456
457
458
459
460
461
462
463
464
465
466
467
468
469
470
471
472
473
474
484
485
486
487
488
489
490
491
492
493
494
495
496
497
498
499
500
501
502
503
504
505
506
507
508
509
510
511
512
513
514
515
516
517
518
519
520
524
525
526
527
528
529
530
531
532
533
534
535
536
537
538
539
540
541
546
547
548
549
550
551
552
553
554
555
556
557
558
559
560
561
562
563
564
565
566
567
568
569
570
571
572
573
574
575
576
577
578
579
580
581
584
585
586
587
588
589
590
591
592
594
595
596
597
598
599
605
606
607
608
609
610
611
612
613
614
615
616
617
618
619
620
621
622
623
624
625
626
627
628
629
630
631
632
633
634
635
636
637
638
639
640
646
647
648
649
650
651
652
653
654
655
656
657
658
664
666
667
670
671
672
673
674
675
676
677
678
679
680
681
682
683
684
685
686
687
688
689
690
691
692
693
710
711
712
713
714
715
716
717
718
719
720
721
738
739
740
741
742
743
744
745
746
747
748
749
750
751
752
763
764
765
766
767
768
772
773
774
775
776
777
778
779
780
781
782
783
784
785
786
787
788
789
790
791
792
793
794
795
796
797
798
799
800
801
803
805
806
807
813
814
816
825
826
827
829
831
832
833
834
835
838
841
842
843
845
846
848
849
850
851
853
854
863
864
867
868
869
870
871
872
873
874
875
877
878
889
890
891
892
893
894
895
896
899
900
901
908
909
910
911
912
913
914
915
916
917
919
924
934
935
936
937
938
939
940
941
942
943
944
945
946
947
948
949
950
957
958
959
960
961
962
963
964
965
966
967
968
978
979
980
981
982
983
984
985
986
987
988
989
993
994
995
996
997
998
999
1000
1002
1013
1014
1015
1016
1017
1025
1026
1028
1029
1030
1031
1032
1033
1034
1035
1036
1037
1038
1039
1040
1041
1054
1055
1056
1057
1058
1059
1060
1061
1062
1063
1064
1065
1066
1067
1068
1069
1070
1084
1085
1086
1090
1091
1092
1093
1094
1095
1102
1103
1104
1105
1106
1107
1108
1109
1110
1115
1150
1172
1173
1174
1175
1176
1541
1542
1543
1544
1545
1546
1547
1548
1549
1553
1554
1557
1558
1559
1560
1572
1573
1574
1575
1576
1577
1578
1579
1580
1586
1587
1588
1589
1591
1592
1593
1594
1595
1596
1597
1598
1599
1600
1601
1602
1603
1604
1605
1606
1607
1608
1609
1610
1611
1612
1620
1621
1622
1623
1624
1625
1626
1627
1628
1629
1633
1634
1635
1636
1653
1654
1655
1656
1657
1658
1659
1660
1661
1662
1663
1664
1665
1666
1667
1668
1669
1670
1671
1672
1673
1674
1675
1676
1677
1678
1679
1680
1681
1682
1683
1684
1685
1686
1687
1688
1689
1690
1691
1692
1693
1694
1695
1696
1697
1698
1699
1700
1711
1725
1739
1740
1741
1742
1743
1744
1745
1746
1747
1748
1749
1750
1751
1752
1753
1754
1755
1756
1757
1758
1759
1760
1761
1762
1763
1764
1765
1766
1767
1768
1769
1771
1772
1773
1774
1775
1776
1777
1842
1843
1844
1845
1846
1847
1848
1849
1850
1851
1853
1854
1855
1856
1857
1858
1859
1860
1861
1862
1863
1864
1865
1866
1867
1869
1870
1898
1899
1900
1909
1910
1911
1918
1919
1920
1921
1922
1923
1925
1926
1927
1970
1971
1972
1973
1974
2366
2367
2372
2376
2378
2381
2383
2385
2392
2393
2394
2399
2400
2401
2402
2403
2404
2405
2406
2407
2408
2409
2410
2413
2414
2415
2416
2417
2418
2421
2422
2423
2424
2425
2426
2427
2428
2429
2430
2431
2432
2433
2434
2435
2436
2437
2438
2439
2440
2447
2448
2450
2453
2454
2456
2457
2459
2460
2461
2462
2463
2464
2465
2466
2467
2468
2469
2470
2471
2472
2473
2474
2478
2480
2481
2482
2483
2484
2485
2486
2487
2488
2489
2490
2491
2492
2493
2494
2496
2497
2498
2499
2500
2501
2502
2511
2512
2513
2514
2517
2518
2521
2522
2523
2524
2526
2527
2528
2529
2530
2531
2532
2533
2534
2535
2539
2540
2541
2542
2543
2544
2545
2546
2547
2548
2549
2550
2555
2556
2557
2558
2559
2560
2561
2562
2563
2564
2565
2566
2567
2568
2573
2575
2576
2577
2578
2579
2580
2581
2582
2583
2584
2585
2586
2587
2588
2589
2590
2591
2592
2593
2594
2595
2596
2597
2598
2599
2600
2601
2602
2603
2604
2605
2606
2607
2608
2609
2610
2611
2612
2613
2614
2618
2624
2629
2630
2631
2632
2633
2634
2635
2636
2637
2638
2639
2640
2641
2642
2643
2644
2645
2646
2647
2648
2649
2650
2651
2652
2653
2654
2655
2656
2657
2666
2667
2668
2669
2670
2671
2674
2675
2678
2681
2682
2683
2684
2685
2686
2693
2694
2695
2696
2697
2698
2699
2700
2701
2702
2703
2704
2705
2706
2707
2713
2714
2715
2718
2719
2720
2721
2722
2723
2728
2729
2730
2731
2732
2733
2734
2735
2736
2737
2745
2746
2747
2754
2755
2756
2757
2758
2759
2773
2774
2775
2776
2777
2778
2779
2780
2781
2784
2785
2786
2787
2788
2789
2790
2791
2792
2793
2794
2795
2796
2797
2798
2799
2800
2818
2819
2820
2826
2827
2828
2829
2830
2831
2839
2840
2841
2846
2847
2848
2849
2850
2851
2852
2853
2854
2855
2856
2857
2864
2865
2866
2867
2868
2869
2870
2871
2872
2881
2882
2883
2884
2885
2886
2887
2888
2889
2890
2891
2892
2921
2922
2923
2924
2925
2926
2927
2928
2929
2930
2931
2932
2933
2934
2935
2936
2938
2939
2940
2941
2942
2943
2944
2945
2946
2947
2948
2949
2950
2951
2952
2953
2954
2955
2964
2965
2966
2967
2968
2969
2970
2971
2972
2973
2974
2975
2976
2977
2978
2979
2980
2981
2982
2984
2985
2986
2990
2991
2992
2994
2995
2996
2997
2998
2999
3000
3001
3002
3010
3011
3012
3013
3014
3015
3016
3017
3018
3019
3020
3021
3022
3023
3024
3029
3030
3031
3032
3033
3034
3045
3046
3047
3048
3049
3050
3051
3052
3053
3054
3055
3056
3057
3058
3059
3060
3061
3062
3063
3064
3065
3066
3067
3068
3069
3070
3071
3072
3073
3074
3075
3076
3077
3078
3079
3080
3081
3082
3083
3084
3085
3086
3087
3088
3089
3090
3091
3092
3093
3094
3095
3096
3097
3098
3099
3100
3101
3102
3103
3104
3105
3106
3107
3108
3109
3110
3111
3112
3113
3114
3115
3116
3117
3118
3119
3120
3121
3122
3123
3124
3125
3126
3127
3128
3129
3130
3131
3132
3133
3134
3135
3136
3137
3138
3139
3140
3141
3142
3143
3144
3145
3146
3147
3148
3149
3150
3151
3152
3153
3154
3155
3156
3157
3158
3159
3160
3161
3162
3163
3164
3165
3166
3167
3168
3169
3170
3171
3172
3173
3174
3175
3176
3177
3178
3179
3180
3181
3182
3183
3184
3185
3186
3187
3188
3189
3190
3191
3192
3193
3194
3195
3196
3197
3198
3199
3200
3201
3202
3203
3204
3205
3206
3207
3208
3209
3210
3211
3212
3213
3214
3215
3216
3217
3218
3219
3220
3221
3222
3223
3224
3225
3226
3227
3228
3229
3230
3231
3232
3233
3234
3235
3236
3237
3238
3239
3240
3241
3242
3243
3244
3245
3246
3247
3248
3249
3250
3251
3252
3253
3254
3255
3256
3257
3258
3259
3260
3261
3262
3263
3264
3265
3266
3267
3268
3269
3270
3271
3272
3273
3274
3275
3276
3277
3278
3279
3280
3281
3282
3283
3284
3285
3286
3287
3288
3289
3290
3291
3292
3293
3294
3295
3296
3297
3298
3299
3300
3301
3302
3303
3304
3305
3306
3307
3308
3309
3310
3311
3312
3313
3314
3315
3316
3317
3318
3319
3320
3321
3322
3323
3324
3325
3326
3327
3328
3329
3330
3331
3332
3333
3334
3335
3336
3337
3338
3339
3340
3341
3342
3343
3344
3345
3346
3347
3348
3349
3350
3351
3352
3353
3354
3355
3356
3357
3358
3359
3360
3361
3362
3363
3364
3365
3366
3367
3368
3369
3370
3371
3372
3373
3374
3375
3376
3377
3378
3379
3380
3381
3383
3384
3385
3390
3391
3392
3393
3394
3395
3396
3397
3398
3399
3400
3401
3402
3403
3404
3405
3406
3407
3408
3409
3410
3411
3412
3413
3414
3415
3416
3417
3418
3419
3421
3422
3423
3424
3425
3428
3429
3430
3433
3434
3437
3438
3442
3443
3445
3446
3447
3448
3449
3453
3454
3455
3456
3457
3458
3461
3464
3465
3466
3467
3468
3469
3470
3471
3472
3473
3474
3475
3476
3477
3478
3479
3480
3481
3482
3483
3484
3485
3486
3487
3488
3489
3490
3491
3492
3493
3498
3500
3501
3503
3505
3506
3507
3508
3509
3511
3512
3513
3514
3515
3518
3521
3523
3524
3527
3528
3529
3530
3531
3532
3533
3534
3535
3536
3537
3545
3550
3551
3552
3553
3554
3555
3556
3562
3566
3574
3577
3578
3582
3584
3585
3586
3587
3588
3589
3590
3591
3593
3594
3595
3596
3611
3612
3613
3614
3615
3616
3617
3618
3619
3625
3626
3627
3628
3629
3630
3640
3641
3642
3643
3644
3645
3646
3647
3648
3651
3653
3655
3656
3657
3658
3659
3660
3661
3662
3663
3664
3665
3666
3668
3670
3671
3672
3673
3674
3675
3676
3677
3678
3679
3680
3681
3682
3685
3686
3687
3688
3689
3690
3691
3692
3693
3694
3695
3696
3697
3698
3699
3700
3701
3702
3703
3704
3706
3707
3708
3711
3712
3713
3714
3717
3718
3719
3722
3723
3724
3725
3728
3729
3733
3734
3735
3742
3743
3744
3751
3752
3753
3754
3755
3756
3757
3759
3760
3761
3762
3763
3764
3765
3769
3770
3771
3775
3776
3777
3781
3782
3783
3787
3788
3789
3803
3809
3810
3817
3820
3821
3823
3827
3830
3851
3852
3854
3886
3915
3986
3987
3988
4023
4024
4025
4087
4088
4089
4092
4093
4094
4095
4096
4097
4101
4103
4104
4110
4111
4116
4117
4123
4124
4125
4131
4132
4136
4138
4141
4142
4143
4144
4145
4146
4147
4148
4149
4150
4151
4152
4153
4154
4155
4158
4161
4162
4163
4164
4165
4166
4167
4168
4169
4171
4172
4173
4177
4178
4179
4180
4181
4182
4183
4184
4185
4186
4187
4188
4189
4190
4191
4192
4193
4194
4195
4196
4197
4198
4199
4200
4201
4204
4205
4206
4207
4208
4209
4210
4211
4212
4213
4214
4225
4226
4227
4228
4229
4230
4231
4232
4233
4234
4235
4236
4237
4238
4239
4240
4241
4242
4243
4244
4245
4246
4247
4248
4249
4250
4251
4256
4257
4258
4259
4260
4261
4262
4285
4286
4288
4292
4293
4296
4332
4334
4335
4346
4347
4348
4365
4366
4367
4426
4427
4428
4429
4430
4431
4502
4503
4960
4963
4964
4979
4981
4982
4983
5351
5352
5353
5354
5355
5356
5357
5358
5359
5360
5362
5363
5364
5365
5366
5367
5368
5369
5370
5371
5372
5373
5374
5375
5376
5377
5378
5379
5380
5381
5382
5383
5385
5386
5388
5390
5391
5392
5393
5394
5395
5396
5398
5399
5404
5407
5408
5414
5417
5418
5419
5420
5421
5422
5427
5441
5449
5458
5460
5462
5463
5464
5465
5466
5467
5468
5469
5470
5475
5478
5483
5490
5697
5698
5699
5700
5701
5703
5704
5705
5706
5707
5708
6015
6018
6021
6024
6025
6026
6027
6028
6039
6040
)


1336
(
441
442
443
444
472
473
474
484
485
486
487
488
489
490
491
492
493
494
495
496
497
498
499
500
501
502
503
504
505
506
507
508
509
510
511
512
513
514
515
516
517
518
519
520
524
525
526
527
528
529
530
531
532
533
534
535
536
537
538
539
540
541
546
547
548
549
550
551
552
553
554
555
556
557
558
559
560
561
562
563
564
565
566
567
568
569
570
571
572
573
574
575
576
577
578
579
580
581
584
585
586
587
588
589
590
591
592
594
595
596
597
598
599
605
606
607
608
609
610
611
612
613
614
615
616
617
618
619
620
621
622
623
624
625
626
627
628
629
630
631
632
633
634
635
636
637
638
639
640
646
647
648
649
650
651
652
653
654
655
656
657
658
664
666
667
670
671
672
673
674
675
676
677
678
679
680
681
682
683
684
685
686
687
688
689
690
691
692
693
710
711
712
713
714
715
716
717
718
719
720
721
738
739
740
741
742
743
744
745
746
747
748
749
750
751
752
763
764
765
766
767
768
772
773
774
775
776
777
778
779
780
781
782
783
784
785
786
787
788
789
790
791
792
793
794
795
796
797
798
799
800
801
848
849
851
853
855
856
860
862
863
867
868
869
870
871
872
873
874
877
879
882
883
884
885
886
887
890
891
892
893
894
895
902
904
905
906
907
908
909
910
912
913
915
916
917
918
921
923
939
940
941
942
943
944
945
946
947
948
949
950
952
953
954
956
957
958
959
960
961
962
963
964
965
966
967
968
970
978
980
981
984
985
986
987
988
989
990
991
992
998
1000
1007
1008
1009
1010
1011
1012
1013
1015
1017
1021
1022
1023
1030
1031
1032
1033
1034
1035
1036
1037
1038
1039
1040
1041
1042
1043
1044
1045
1046
1047
1049
1050
1051
1052
1053
1054
1055
1056
1057
1058
1059
1060
1061
1062
1063
1064
1065
1066
1067
1068
1069
1070
1071
1072
1073
1074
1075
1076
1077
1078
1079
1080
1081
1082
1083
1084
1085
1086
1090
1091
1092
1093
1094
1095
1097
1099
1101
1102
1103
1104
1105
1107
1111
1113
1117
1118
1119
1120
1121
1122
1123
1124
1125
1127
1128
1129
1134
1135
1147
1172
1174
1175
1541
1542
1543
1544
1545
1548
1553
1554
1557
1558
1559
1572
1573
1574
1575
1576
1577
1578
1579
1580
1586
1587
1588
1589
1593
1594
1596
1601
1602
1603
1604
1605
1606
1607
1608
1609
1610
1611
1612
1620
1621
1622
1623
1624
1625
1626
1627
1628
1629
1633
1634
1653
1654
1655
1656
1657
1658
1659
1660
1661
1662
1663
1664
1665
1666
1667
1668
1669
1670
1671
1672
1673
1674
1675
1676
1677
1678
1679
1680
1681
1682
1683
1684
1685
1686
1687
1688
1689
1690
1691
1692
1693
1694
1695
1696
1697
1698
1699
1700
1725
1740
1741
1742
1743
1752
1753
1754
1755
1758
1759
1760
1761
1762
1763
1764
1765
1766
1767
1768
1769
1771
1772
1773
1774
1842
1843
1844
1845
1846
1847
1848
1849
1850
1851
1853
1854
1855
1856
1857
1858
1859
1860
1861
1862
1863
1864
1865
1866
1868
1869
1898
1899
1900
1909
1910
1911
1918
1919
1920
1921
1922
1923
1924
1925
1926
2393
2394
2615
2618
2627
2628
2653
2654
2655
2656
2666
2667
2668
2669
2670
2671
2674
2675
2678
2681
2682
2683
2684
2685
2686
2693
2694
2695
2696
2697
2698
2699
2700
2701
2702
2703
2704
2705
2706
2707
2713
2714
2715
2718
2719
2720
2721
2722
2723
2728
2729
2730
2731
2732
2733
2734
2735
2736
2737
2745
2746
2747
2754
2755
2756
2757
2758
2759
2773
2774
2775
2776
2777
2778
2779
2780
2781
2784
2785
2786
2787
2788
2789
2790
2791
2792
2793
2794
2795
2796
2797
2798
2799
2800
2818
2819
2820
2826
2827
2828
2829
2830
2831
2839
2840
2841
2846
2847
2848
2849
2850
2851
2852
2853
2854
2855
2856
2857
2864
2865
2866
2867
2868
2869
2870
2871
2872
2881
2882
2883
2884
2885
2886
2887
2888
2889
2890
2891
2892
2921
2922
2923
2924
2925
2926
2927
2928
2929
2930
2931
2932
2933
2934
2935
2936
2938
2939
2940
2941
2942
2943
2944
2945
2946
2947
2948
2949
2950
2951
2952
2953
2954
2955
2964
2965
2966
2967
2968
2969
2970
2971
2972
2973
2974
2975
2976
2977
2978
2979
2980
2981
2982
2984
2985
2986
2990
2991
2992
2994
2995
2996
2997
2998
2999
3000
3001
3002
3010
3011
3012
3013
3014
3015
3016
3017
3018
3019
3020
3021
3022
3023
3024
3029
3030
3031
3032
3033
3034
3383
3384
3385
3386
3389
3421
3422
3423
3424
3425
3428
3430
3433
3434
3437
3438
3442
3445
3446
3447
3448
3449
3453
3454
3455
3456
3457
3458
3461
3462
3493
3498
3500
3501
3503
3505
3506
3507
3508
3509
3511
3512
3513
3514
3515
3518
3519
3520
3521
3522
3523
3524
3525
3528
3529
3530
3531
3532
3533
3534
3535
3536
3537
3545
3546
3550
3551
3552
3553
3554
3555
3562
3566
3574
3585
3586
3587
3588
3589
3590
3591
3594
3611
3612
3613
3614
3615
3616
3617
3618
3619
3625
3626
3627
3628
3629
3630
3640
3641
3642
3643
3644
3645
3646
3647
3648
3649
3650
3651
3652
3653
3654
3655
3656
3657
3658
3659
3660
3661
3662
3663
3664
3665
3666
3668
3670
3671
3672
3673
3674
3675
3676
3677
3678
3679
3680
3681
3682
3683
3684
3685
3686
3687
3688
3689
3690
3691
3692
3693
3694
3695
3696
3697
3698
3699
3700
3701
3702
3704
3706
3707
3708
3709
3710
3711
3712
3713
3714
3717
3718
3719
3722
3723
3724
3725
3728
3729
3730
3731
3732
3733
3734
3735
3738
3739
3741
3742
3743
3744
3745
3746
3747
3748
3749
3750
3751
3752
3753
3754
3755
3756
3757
3758
3759
3760
3761
3762
3763
3764
3765
3769
3770
3771
3775
3776
3777
3781
3782
3783
3787
3788
3789
3833
3834
3835
3839
3840
3842
3847
3851
3852
3853
3854
3855
3856
3860
3861
3862
3863
3864
3865
3873
3875
3876
3877
3878
3879
3880
3881
3882
3936
3937
3938
3969
3971
3972
3973
3974
3975
3976
3980
3981
3982
3986
3987
3988
3989
3990
3991
3992
3993
3994
3995
3996
3997
3999
4001
4002
4003
4019
4022
4023
4024
4025
4026
4027
4028
4029
4030
4031
4032
4033
4034
4036
4038
4039
4040
4041
4042
4043
4044
4045
4046
4075
4082
4087
4088
4089
4090
4123
4124
4125
4131
4132
4136
4138
4141
4142
4143
4144
4145
4146
4147
4148
4149
4150
4151
4152
4153
4154
4155
4158
4161
4162
4163
4164
4165
4166
4167
4168
4169
4171
4172
4173
4177
4178
4179
4180
4181
4182
4183
4184
4185
4186
4187
4188
4189
4190
4191
4192
4193
4194
4195
4196
4197
4198
4199
4200
4201
4204
4205
4206
4207
4208
4209
4210
4211
4212
4213
4214
4225
4226
4227
4228
4229
4230
4231
4232
4233
4234
4235
4236
4237
4238
4239
4240
4241
4242
4243
4244
4245
4246
4247
4248
4249
4250
4251
4256
4257
4258
4259
4260
4261
4262
4285
4286
4288
4292
4293
4296
4332
4334
4335
4346
4347
4348
4365
4366
4367
4426
4427
4428
4429
4430
4431
4503
4980
5348
5349
5350
5374
5375
5376
5377
5378
5379
5380
5381
5382
5383
5384
5385
5386
5388
5389
5390
5391
5392
5393
5394
5395
5396
5397
5398
5399
5403
5404
5407
5414
5419
5420
5422
5441
5456
5463
5464
5490
5697
5698
5699
5700
5701
5703
5706
5707
5708
6027
6028
6030
6031
6036
6037
6038
6039
6040
6046
6057
6062
6063
)


989
(
441
442
443
444
472
473
474
484
485
486
487
488
489
490
491
492
493
494
495
496
497
498
499
500
501
502
503
504
505
506
507
508
509
510
511
512
513
514
515
516
517
518
519
520
524
525
526
527
528
529
530
531
532
533
534
535
536
537
538
539
540
541
546
547
548
549
550
551
552
553
554
555
556
557
558
559
560
561
562
563
564
565
566
567
568
569
570
571
572
573
574
575
576
577
578
579
580
581
584
585
586
587
588
589
590
591
592
594
595
596
597
598
599
605
606
607
608
609
610
611
612
613
614
615
616
617
618
619
620
621
622
623
624
625
626
627
628
629
630
631
632
633
634
635
636
637
638
639
640
646
647
648
649
650
651
652
653
654
655
656
657
658
664
666
667
670
671
672
673
674
675
676
677
678
679
680
681
682
683
684
685
686
687
688
689
690
691
692
693
710
711
712
713
714
715
716
717
718
719
720
721
738
739
740
741
742
743
744
745
746
747
748
749
750
751
752
763
764
765
766
767
768
772
773
774
775
776
777
778
779
780
781
782
783
784
785
786
787
788
789
790
791
792
793
794
795
796
797
798
799
800
801
848
849
851
853
863
868
870
871
872
874
875
877
878
891
901
909
916
939
941
942
944
957
959
961
962
985
987
988
989
1017
1030
1031
1032
1033
1034
1035
1036
1037
1038
1039
1040
1041
1043
1044
1054
1055
1056
1057
1058
1059
1060
1061
1062
1063
1064
1065
1066
1067
1068
1069
1070
1071
1084
1085
1086
1090
1091
1092
1093
1094
1095
1105
1106
1107
1108
1109
1110
1113
1115
1116
1541
1542
1543
1554
1558
1575
1586
1587
1588
1589
1596
1601
1620
1621
1623
1624
1625
1626
1627
1628
1629
1634
1663
1685
1686
1687
1688
1689
1690
1691
1692
1693
1694
1695
1696
1697
1698
1699
1700
1741
1761
1762
1763
1764
1765
1766
1767
1768
1769
1774
1849
1850
1851
1858
1859
1860
1861
1862
1863
1909
1910
1911
1918
1920
2627
2628
2653
2654
2655
2656
2666
2667
2668
2669
2670
2671
2674
2675
2678
2681
2682
2683
2684
2685
2686
2693
2694
2695
2696
2697
2698
2699
2700
2701
2702
2703
2704
2705
2706
2707
2713
2714
2715
2718
2719
2720
2721
2722
2723
2728
2729
2730
2731
2732
2733
2734
2735
2736
2737
2745
2746
2747
2754
2755
2756
2757
2758
2759
2773
2774
2775
2776
2777
2778
2779
2780
2781
2784
2785
2786
2787
2788
2789
2790
2791
2792
2793
2794
2795
2796
2797
2798
2799
2800
2818
2819
2820
2826
2827
2828
2829
2830
2831
2839
2840
2841
2846
2847
2848
2849
2850
2851
2852
2853
2854
2855
2856
2857
2864
2865
2866
2867
2868
2869
2870
2871
2872
2881
2882
2883
2884
2885
2886
2887
2888
2889
2890
2891
2892
2921
2922
2923
2924
2925
2926
2927
2928
2929
2930
2931
2932
2933
2934
2935
2936
2938
2939
2940
2941
2942
2943
2944
2945
2946
2947
2948
2949
2950
2951
2952
2953
2954
2955
2964
2965
2966
2967
2968
2969
2970
2971
2972
2973
2974
2975
2976
2977
2978
2979
2980
2981
2982
2984
2985
2986
2990
2991
2992
2994
2995
2996
2997
2998
2999
3000
3001
3002
3010
3011
3012
3013
3014
3015
3016
3017
3018
3019
3020
3021
3022
3023
3024
3029
3030
3031
3032
3033
3034
3384
3385
3389
3423
3424
3428
3430
3432
3436
3437
3438
3446
3452
3453
3458
3493
3498
3499
3501
3503
3505
3506
3507
3508
3512
3513
3519
3520
3521
3522
3523
3524
3525
3528
3529
3530
3531
3532
3533
3542
3543
3545
3609
3611
3612
3613
3614
3617
3618
3619
3640
3641
3642
3643
3644
3645
3646
3647
3648
3651
3652
3653
3654
3655
3656
3657
3658
3659
3660
3661
3662
3663
3670
3676
3677
3678
3679
3680
3681
3682
3683
3684
3685
3686
3687
3688
3689
3690
3691
3692
3693
3694
3695
3696
3697
3698
3699
3708
3730
3731
3732
3733
3734
3735
3739
3742
3743
3744
3745
3746
3747
3748
3749
3750
3751
3752
3753
3754
3755
3756
3757
3758
3759
3760
3761
3762
3769
3770
3771
3833
3834
3835
3839
3840
3842
3847
3851
3852
3853
3854
3855
3856
3860
3861
3862
3863
3864
3865
3875
3876
3877
3878
3879
3880
3881
3882
3936
3945
3969
3971
3972
3973
3974
3975
3976
3980
3981
3982
3986
3987
3988
3989
3990
3991
3992
3993
3994
3995
3996
3997
3999
4001
4002
4003
4019
4022
4023
4024
4025
4026
4027
4028
4029
4030
4031
4032
4033
4034
4038
4039
4041
4042
4043
4044
4045
4046
4075
4087
4088
4089
4090
4123
4124
4125
4132
4142
4143
4144
4145
4146
4147
4148
4149
4150
4152
4153
4161
4162
4163
4164
4165
4166
4167
4168
4169
4171
4178
4179
4180
4181
4182
4183
4184
4185
4186
4187
4188
4189
4190
4191
4192
4193
4194
4195
4196
4197
4198
4199
4200
4201
4225
4226
4227
4228
4229
4230
4231
4232
4233
4234
4235
4236
4237
4238
4239
4240
4241
4242
4243
4259
4260
4261
4262
4285
4286
4288
4292
4293
4296
4332
4335
4346
4347
4348
4365
4366
4367
4426
4427
4428
4429
4430
4431
5348
5349
5350
5374
5375
5378
5379
5380
5382
5383
5385
5386
5391
5393
5394
5395
5396
5398
5399
5404
5407
5414
5418
5419
5422
5424
5425
5435
5439
5441
5447
5449
5458
5464
5490
5697
5698
5699
5700
5701
5703
5705
5706
5707
5708
6001
6002
6003
6004
6012
6025
6026
6027
6028
6030
6031
6036
6037
6038
6039
6040
6045
6046
6057
6062
6063
)


1570
(
441
442
443
444
472
473
474
484
485
486
487
488
489
490
491
492
493
494
495
496
497
498
499
500
501
502
503
504
505
506
507
508
509
510
511
512
513
514
515
516
517
518
519
520
524
525
526
527
528
529
530
531
532
533
534
535
536
537
538
539
540
541
546
547
548
549
550
551
552
553
554
555
556
557
558
559
560
561
562
563
564
565
566
567
568
569
570
571
572
573
574
575
576
577
578
579
580
581
584
585
586
587
588
589
590
591
592
594
595
596
597
598
599
605
606
607
608
609
610
611
612
613
614
615
616
617
618
619
620
621
622
623
624
625
626
627
628
629
630
631
632
633
634
635
636
637
638
639
640
646
647
648
649
650
651
652
653
654
655
656
657
658
664
666
667
670
671
672
673
674
675
676
677
678
679
680
681
682
683
684
685
686
687
688
689
690
691
692
693
710
711
712
713
714
715
716
717
718
719
720
721
738
739
740
741
742
743
744
745
746
747
748
749
750
751
752
763
764
765
766
767
768
772
773
774
775
776
777
778
779
780
781
782
783
784
785
786
787
788
789
790
791
792
793
794
795
796
797
798
799
800
801
848
849
851
852
853
855
856
859
860
862
863
865
868
869
870
871
872
874
875
876
877
878
883
884
885
886
887
888
890
891
892
895
897
898
902
903
904
905
907
908
909
910
916
917
918