/*--------------------------------*- C++ -*----------------------------------*\
  =========                 |
  \\      /  F ield         | OpenFOAM: The Open Source CFD Toolbox
   \\    /   O peration     | Website:  https://openfoam.org
    \\  /    A nd           | Version:  8
     \\/     M anipulation  |
\*---------------------------------------------------------------------------*/
/*   Windows 32 and 64 bit porting by blueCAPE: http://www.bluecape.com.pt   *\
|  Based on Windows porting (2.0.x v4) by Symscape: http://www.symscape.com   |
\*---------------------------------------------------------------------------*/
FoamFile
{
    version     2.0;
    format      ascii;
    class       polyBoundaryMesh;
    location    "constant/air/polyMesh";
    object      boundary;
}
// * * * * * * * * * * * * * * * * * * * * * * * * * * * * * * * * * * * * * //

13
(
    left
    {
        type            patch;
        nFaces          0;
        startFace       6819;
    }
    right
    {
        type            patch;
        nFaces          38;
        startFace       6819;
    }
    back
    {
        type            patch;
        nFaces          0;
        startFace       6857;
    }
    front
    {
        type            patch;
        nFaces          64;
        startFace       6857;
    }
    bottom
    {
        type            wall;
        inGroups        List<word> 1(wall);
        nFaces          96;
        startFace       6921;
    }
    top
    {
        type            patch;
        nFaces          52;
        startFace       7017;
    }
    tower
    {
        type            mappedWall;
        inGroups        List<word> 
2
(
wall
mappedPatch
)
;
        nFaces          365;
        startFace       7069;
        sampleMode      nearestPatchFace;
        sampleRegion    tower;
        samplePatch     buildings_to_air;
    }
    procBoundary12to10
    {
        type            processor;
        inGroups        List<word> 1(processor);
        nFaces          118;
        startFace       7434;
        matchTolerance  0.0001;
        myProcNo        12;
        neighbProcNo    10;
    }
    procBoundary12to11
    {
        type            processor;
        inGroups        List<word> 1(processor);
        nFaces          83;
        startFace       7552;
        matchTolerance  0.0001;
        myProcNo        12;
        neighbProcNo    11;
    }
    procBoundary12to13
    {
        type            processor;
        inGroups        List<word> 1(processor);
        nFaces          160;
        startFace       7635;
        matchTolerance  0.0001;
        myProcNo        12;
        neighbProcNo    13;
    }
    procBoundary12to14
    {
        type            processor;
        inGroups        List<word> 1(processor);
        nFaces          50;
        startFace       7795;
        matchTolerance  0.0001;
        myProcNo        12;
        neighbProcNo    14;
    }
    procBoundary12to17
    {
        type            processor;
        inGroups        List<word> 1(processor);
        nFaces          14;
        startFace       7845;
        matchTolerance  0.0001;
        myProcNo        12;
        neighbProcNo    17;
    }
    procBoundary12to18
    {
        type            processor;
        inGroups        List<word> 1(processor);
        nFaces          7;
        startFace       7859;
        matchTolerance  0.0001;
        myProcNo        12;
        neighbProcNo    18;
    }
)

// ************************************************************************* //
