/*--------------------------------*- C++ -*----------------------------------*\
  =========                 |
  \\      /  F ield         | OpenFOAM: The Open Source CFD Toolbox
   \\    /   O peration     | Website:  https://openfoam.org
    \\  /    A nd           | Version:  8
     \\/     M anipulation  |
\*---------------------------------------------------------------------------*/
/*   Windows 32 and 64 bit porting by blueCAPE: http://www.bluecape.com.pt   *\
|  Based on Windows porting (2.0.x v4) by Symscape: http://www.symscape.com   |
\*---------------------------------------------------------------------------*/
FoamFile
{
    version     2.0;
    format      ascii;
    class       polyBoundaryMesh;
    location    "constant/tower/polyMesh";
    object      boundary;
}
// * * * * * * * * * * * * * * * * * * * * * * * * * * * * * * * * * * * * * //

6
(
    buildings_to_air
    {
        type            mappedWall;
        inGroups        List<word> 
2
(
wall
mappedPatch
)
;
        nFaces          1466;
        startFace       34391;
        sampleMode      nearestPatchFace;
        sampleRegion    air;
        samplePatch     tower;
    }
    interior
    {
        type            patch;
        nFaces          1453;
        startFace       35857;
    }
    procBoundary15to11
    {
        type            processor;
        inGroups        List<word> 1(processor);
        nFaces          399;
        startFace       37310;
        matchTolerance  0.0001;
        myProcNo        15;
        neighbProcNo    11;
    }
    procBoundary15to16
    {
        type            processor;
        inGroups        List<word> 1(processor);
        nFaces          497;
        startFace       37709;
        matchTolerance  0.0001;
        myProcNo        15;
        neighbProcNo    16;
    }
    procBoundary15to17
    {
        type            processor;
        inGroups        List<word> 1(processor);
        nFaces          396;
        startFace       38206;
        matchTolerance  0.0001;
        myProcNo        15;
        neighbProcNo    17;
    }
    procBoundary15to19
    {
        type            processor;
        inGroups        List<word> 1(processor);
        nFaces          132;
        startFace       38602;
        matchTolerance  0.0001;
        myProcNo        15;
        neighbProcNo    19;
    }
)

// ************************************************************************* //
