/*--------------------------------*- C++ -*----------------------------------*\
  =========                 |
  \\      /  F ield         | OpenFOAM: The Open Source CFD Toolbox
   \\    /   O peration     | Website:  https://openfoam.org
    \\  /    A nd           | Version:  8
     \\/     M anipulation  |
\*---------------------------------------------------------------------------*/
/*   Windows 32 and 64 bit porting by blueCAPE: http://www.bluecape.com.pt   *\
|  Based on Windows porting (2.0.x v4) by Symscape: http://www.symscape.com   |
\*---------------------------------------------------------------------------*/
FoamFile
{
    version     2.0;
    format      ascii;
    class       scalarListList;
    location    "constant/vegetation";
    object      F;
}
// * * * * * * * * * * * * * * * * * * * * * * * * * * * * * * * * * * * * * //


284
(

1600
(
1.9101672e-07
5.6346465e-06
3.9077075e-06
1.4822101e-06
1.9463561e-06
4.7511401e-06
6.1220306e-07
4.0304581e-06
1.0484387e-06
2.6133305e-06
4.3642188e-06
0.00089722674
0.001075387
0.00091434473
0.00025389397
0.0010421935
0.00042077539
0.00029559583
0.00098165929
0.00023901865
3.0462364e-07
4.3867967e-07
5.1167594e-07
5.5080259e-07
1.5063842e-07
2.8706388e-07
2.1459728e-07
2.0911191e-07
4.0754263e-07
6.6628826e-07
3.5054597e-07
1.7169858e-07
1.0694006e-07
1.2508755e-07
9.2556048e-08
7.8565419e-08
7.3508524e-08
5.2520379e-08
5.7864141e-08
3.618483e-08
3.0669429e-08
1.2258766e-07
1.1236254e-07
1.2902367e-07
1.5849886e-07
1.3011636e-07
1.5357132e-07
9.3265803e-08
9.8264482e-08
1.0750827e-07
8.8052653e-08
1.0447366e-07
4.0145938e-08
1.5095256e-07
5.3633076e-07
2.9637258e-07
4.9803524e-07
1.0846028e-08
9.5444885e-09
2.6358739e-07
1.4274315e-08
1.5590538e-07
2.5663551e-07
3.5175219e-07
4.287394e-07
1.1474794e-08
9.329338e-09
1.403074e-08
2.3871326e-08
8.9183489e-09
1.4250585e-08
6.9979601e-08
6.5594163e-08
1.0026286e-07
1.083421e-07
9.9773822e-08
1.0705379e-07
1.3107784e-07
4.7015749e-08
5.1612078e-08
3.1985482e-08
2.8229001e-08
1.6347661e-07
1.6372456e-07
1.6201109e-08
1.751022e-08
1.5338648e-08
1.5723121e-08
2.3786525e-08
1.5244591e-07
3.5212699e-09
3.3525219e-09
5.2653544e-09
6.3829786e-08
1.341878e-07
1.4629786e-07
8.2867922e-08
1.5566054e-07
1.799934e-08
4.1174521e-09
2.0858613e-07
2.6950141e-08
1.7893551e-08
2.9811231e-09
2.1753158e-08
4.3684259e-09
3.3586355e-08
3.7308935e-08
8.5120334e-08
6.9625431e-08
4.8007239e-08
6.4322493e-08
2.8036147e-09
2.0236458e-08
4.2463134e-08
2.5835998e-08
1.2539369e-07
1.4815333e-07
1.7852936e-07
1.5923835e-07
9.0363598e-08
1.0640562e-07
1.2049953e-07
1.1462203e-07
1.0947551e-07
8.4525583e-08
6.9050605e-08
1.1361015e-07
1.4198574e-07
9.113191e-08
1.1103962e-07
1.1399224e-07
4.7637809e-08
6.3796509e-08
4.2142563e-08
2.7009215e-08
1.134815e-07
1.7321353e-07
1.5802793e-07
1.0186096e-07
1.2326761e-07
9.7074239e-08
8.3530604e-08
7.9994539e-08
7.4851439e-08
6.836544e-08
4.7121923e-08
5.3504047e-08
6.314759e-08
5.8945257e-08
4.1673807e-08
3.6906048e-08
3.1369942e-08
2.5151597e-08
1.1682106e-07
1.3156275e-07
1.1825481e-07
1.3903678e-07
1.3631979e-07
1.8444043e-07
1.7325338e-07
1.2471867e-07
1.7054278e-07
1.4478236e-07
8.8412838e-08
9.5787508e-08
1.0121618e-07
1.0385992e-07
1.1172593e-07
1.1714822e-07
8.1694742e-08
1.1555819e-07
1.0258424e-07
5.3473039e-08
4.3449592e-08
3.828874e-08
6.5956378e-08
1.1052097e-07
1.0059706e-07
1.0435004e-07
1.1611923e-07
8.6305714e-08
1.074264e-07
5.9906381e-08
8.0011792e-08
1.0314579e-08
3.7039105e-09
9.8753819e-09
3.2033656e-09
4.7040125e-09
1.4817609e-08
5.5944168e-08
7.0129209e-08
6.107187e-08
1.4068807e-07
1.4754017e-07
1.3403317e-07
1.3869829e-07
1.3091738e-07
9.0185433e-08
7.8894779e-08
8.8109444e-08
3.9004822e-09
1.2227513e-08
3.0832819e-09
9.1375933e-09
4.6343303e-09
1.3124503e-08
2.4169572e-08
3.3316372e-08
3.3259852e-09
8.6586189e-09
1.4515271e-08
1.9665405e-08
7.9327321e-08
7.362379e-08
7.4238665e-08
6.0968846e-08
1.1919847e-07
9.5509418e-08
1.2814188e-07
1.3534573e-07
1.0005206e-07
8.0134672e-08
1.1221546e-07
9.4311632e-08
1.0865368e-07
1.1460272e-07
5.3080004e-08
4.1990193e-08
5.846889e-08
5.647383e-08
3.668915e-08
3.7344126e-08
2.7208338e-08
3.1673379e-08
1.6961739e-07
1.7114881e-07
1.7047898e-07
1.807162e-07
5.4721111e-08
4.2744934e-08
5.1744269e-08
1.2461375e-07
1.1365622e-07
1.2211756e-07
9.8547635e-08
1.0513876e-07
9.6546127e-08
1.5412075e-08
1.8926034e-08
2.0647521e-08
1.9609545e-08
1.5084289e-08
2.1153085e-08
2.6813368e-08
1.5579467e-08
2.201526e-08
3.3173269e-08
1.3934752e-07
1.3963993e-07
6.5128334e-08
4.5815631e-08
5.6742828e-08
4.1287816e-08
4.0228028e-08
4.8633826e-08
1.2858674e-07
9.9053136e-08
1.2036205e-07
9.2822209e-08
1.0469942e-07
1.1252669e-07
7.3026231e-08
6.6844136e-08
8.0969041e-08
9.6836499e-08
7.3225568e-08
8.8910323e-08
6.9498549e-06
5.1356913e-06
7.6899413e-06
8.0175896e-06
1.293839e-05
7.7086274e-06
4.3352788e-06
7.5193873e-06
5.996711e-06
5.5194207e-06
0.013607313
0.0058251801
0.01590564
0.0035650729
0.0069142815
8.6033113e-06
7.091928e-06
1.0984117e-05
5.1851853e-06
1.1079077e-06
1.0434441e-05
2.2629892e-06
1.4366293e-06
1.3345591e-06
9.9227524e-07
1.2614907e-06
2.7429615e-06
2.0747682e-06
2.468399e-06
1.6779874e-06
1.5693824e-06
1.8342047e-06
1.2671044e-05
1.0487805e-05
1.4926075e-07
3.3922528e-06
5.6823283e-06
6.9273699e-06
5.6582147e-06
6.1629552e-06
4.594284e-06
5.3235518e-06
1.384478e-07
2.3340561e-07
3.1318968e-06
2.7680473e-06
1.175764e-06
1.1148355e-06
8.330905e-07
9.0886879e-07
5.8841058e-07
5.029591e-07
1.3451067e-06
1.485802e-06
1.3958348e-06
1.476906e-06
1.6036778e-06
3.0401742e-06
1.1560626e-06
8.2226054e-07
5.8270203e-07
1.3921526e-06
2.5306786e-07
2.4757342e-06
1.0971958e-06
8.9639792e-07
5.0638402e-07
1.286565e-07
2.9955454e-06
1.5596264e-07
3.3079761e-06
3.4099002e-06
3.1921912e-06
1.095446e-06
6.8282646e-07
5.3794488e-08
3.9501772e-06
6.1249653e-07
8.6140188e-06
1.4418224e-06
1.5919921e-06
1.1748682e-06
1.0276815e-06
8.7048627e-07
5.9339571e-08
4.5592325e-08
2.6708655e-07
9.8175041e-07
2.9175935e-06
3.6037248e-06
1.0741e-06
1.2098594e-06
6.2212468e-07
8.1224528e-07
5.5418175e-07
3.4020776e-07
4.0632601e-08
4.5904937e-07
2.9038824e-07
1.2389042e-06
2.7563237e-06
3.6256046e-06
1.2654379e-06
1.5919435e-06
1.3133427e-06
3.3402131e-06
2.4858638e-06
1.7034015e-06
2.2295997e-06
1.0516976e-06
3.3870199e-06
2.5132801e-06
1.1146745e-06
9.4766853e-07
9.4662914e-07
8.8872411e-07
6.7817476e-07
8.8396237e-07
6.043458e-07
4.601934e-07
3.7108684e-07
1.1640824e-06
1.6057489e-06
1.294968e-06
1.2086732e-06
1.661292e-06
2.1784177e-06
2.2751781e-06
1.3168826e-06
9.7832094e-07
9.2589731e-07
4.2217868e-06
5.196895e-06
1.1181553e-06
1.1617468e-06
6.8790534e-07
7.5133552e-07
4.8431125e-07
4.1283127e-07
1.4274488e-06
1.5057796e-06
7.8410207e-07
1.4305882e-06
1.2033843e-06
2.9689194e-06
3.1316609e-06
1.8843334e-06
2.7935992e-06
2.2220358e-06
1.5423896e-06
1.8434858e-06
1.7173209e-06
2.0171503e-06
2.0136255e-06
8.8930055e-07
9.2066229e-08
4.8313512e-07
2.3623655e-06
3.2199756e-06
3.8644277e-07
8.1958147e-08
3.4354296e-06
4.1728297e-07
1.2185609e-07
1.9418771e-07
3.631225e-06
4.5133174e-07
1.6727629e-06
5.6188567e-06
9.7887987e-06
3.9094711e-07
1.1833245e-07
3.5678218e-07
2.4314097e-06
4.39023e-07
3.1912568e-06
3.4901814e-06
4.9213107e-08
1.6122463e-07
1.5817921e-06
2.1776606e-06
1.0182283e-06
1.7572068e-07
6.5833479e-08
1.93283e-07
2.1589653e-06
7.1438235e-07
3.0654098e-06
3.5512034e-06
4.5293096e-08
1.2465511e-07
2.0834221e-07
3.2620485e-07
1.7327995e-06
2.9655456e-06
3.3460253e-06
3.1889087e-06
2.8549319e-06
2.8449361e-06
1.0620439e-06
1.2335899e-06
1.0060295e-06
1.049933e-06
7.4953862e-07
7.5417078e-07
8.1819934e-07
9.8123629e-07
5.2833892e-07
6.7237832e-07
4.5047703e-07
4.1586495e-07
1.2106389e-06
1.2899628e-06
1.5285534e-06
1.8782081e-06
1.254384e-06
1.4349676e-06
1.7341265e-06
1.6136169e-06
1.8987377e-06
2.0931949e-06
1.0423866e-07
2.7139883e-07
3.1076954e-07
7.3322432e-08
2.4003616e-07
2.1446833e-07
2.7733048e-06
2.7697202e-06
2.3007932e-06
3.297359e-06
3.4439551e-06
1.2135699e-06
1.0576182e-06
7.5685956e-07
7.4489707e-07
6.6447622e-07
5.28918e-07
1.2883264e-06
1.4447014e-06
2.6974369e-07
3.5191422e-07
2.2163266e-06
2.0165005e-06
1.0053668e-06
1.0339968e-06
8.2213762e-07
9.6708319e-07
4.3463705e-07
4.7025648e-07
6.5515087e-07
9.6589414e-07
5.9545985e-07
6.7066416e-07
4.1334293e-07
4.97069e-07
2.8091427e-07
3.4895225e-07
2.9416556e-07
3.7233334e-07
3.5788107e-07
3.1964604e-07
2.6014759e-06
1.9651443e-06
2.1414393e-06
1.1213158e-06
8.7402134e-07
5.4338503e-07
1.9478879e-06
1.6650469e-06
9.6715085e-07
0.0019281045
0.0030997275
0.0018919289
5.4134783e-06
0.00028182715
1.9970641e-05
4.4273952e-06
0.00019278106
1.1761761e-06
0.00034300182
0.00025840153
3.2907628e-05
2.2114689e-05
0.00027467717
0.00023146664
3.2168842e-05
4.3015803e-05
3.5574151e-05
2.5530483e-06
1.821348e-05
1.0055456e-05
2.1590072e-06
1.7829774e-05
7.6265119e-05
0.00010960326
3.5541499e-05
4.3759785e-05
6.7574689e-05
4.798548e-05
0.00037202039
0.00033378014
0.00020869742
3.4928448e-05
1.2680347e-05
1.9682752e-05
8.3678183e-05
5.8838329e-05
6.5917296e-05
1.1564669e-05
2.0408162e-05
7.3788164e-05
0.00019642862
5.0990755e-05
5.2494433e-05
4.6831292e-05
3.4612363e-05
5.1576947e-05
4.6415975e-05
3.8305728e-05
2.7546886e-05
4.6657063e-05
0.00020010357
0.0002722823
0.00019447073
0.00016038228
0.00025742355
0.00018086288
2.898382e-05
5.1938511e-05
4.8579969e-05
8.2461218e-05
7.3780166e-05
6.6171827e-05
8.6113001e-05
7.4398076e-05
9.3815814e-05
9.719948e-05
8.3595548e-05
3.2971607e-05
2.8175971e-05
4.8833093e-05
3.6734166e-05
3.4714284e-05
3.8100002e-05
4.040821e-05
3.5277381e-05
3.7235925e-05
4.1779417e-05
5.8859873e-05
5.9956674e-05
5.241073e-05
4.1998536e-05
5.3396434e-05
4.6790593e-05
0.00013223638
0.00014090167
9.7468221e-05
0.00037762416
0.00036438374
9.4940198e-05
9.5797807e-05
0.00010986787
6.5119445e-05
8.4417604e-05
7.3356824e-05
5.7207686e-05
5.1677941e-05
6.4164802e-05
4.2292225e-05
5.2728628e-05
4.2909056e-05
1.6228728e-05
6.6821433e-06
2.0015062e-05
1.7665574e-05
2.2533099e-05
1.9958278e-05
1.3284692e-05
3.6535496e-06
1.0971537e-05
5.128828e-06
1.4361391e-06
4.942218e-06
3.3501142e-05
3.6211103e-05
3.6682251e-05
1.5222913e-05
1.4312286e-05
1.7189903e-05
3.0411987e-06
7.7176943e-06
9.1459867e-06
7.3914117e-06
1.1315634e-05
8.1991877e-06
1.816913e-06
6.6104156e-06
5.7290319e-06
3.4004312e-05
3.7069677e-05
3.6947656e-05
2.4109309e-05
2.488353e-05
2.7061388e-05
3.1293377e-05
3.5525859e-05
3.4671052e-05
2.5922389e-05
3.0759691e-05
2.9020296e-05
3.0233398e-05
3.2279802e-05
3.3583e-05
2.7885812e-05
5.3253085e-05
3.4336044e-05
2.7591915e-05
3.0686864e-05
2.4449488e-05
1.7300396e-05
2.6270013e-05
2.0886362e-05
2.2854286e-05
2.9054396e-05
1.8877788e-05
2.4082511e-05
1.3118614e-05
1.5593447e-05
1.3683035e-05
1.1308523e-05
9.7784271e-06
4.266294e-05
4.6461071e-05
4.2772744e-05
3.042695e-05
4.156009e-05
3.2991433e-05
4.4204786e-05
3.7290628e-05
3.5280421e-05
4.2491183e-05
5.1441094e-05
4.1646881e-05
3.901944e-05
5.0236349e-05
4.0474006e-05
0.00064721128
0.00012976942
0.0009060134
0.001016058
3.0079608e-05
0.00018005333
0.001942735
0.00046024983
0.0010045778
0.0015958761
0.00022864555
0.00092024694
4.0458583e-05
0.00067713818
0.00078855166
0.00035629692
0.0010031062
0.0016291237
0.0004938504
0.0010573916
0.0012108648
1.0504971e-05
8.2680257e-05
0.00022586051
1.3400732e-05
0.00010368995
0.001012299
0.0011090533
0.00058910167
0.00065900469
0.0011089582
0.00013935518
0.00086053665
0.00029460512
0.00010339087
0.00058970575
0.00027424939
0.00017264587
0.00012337132
0.00019123304
0.0002469082
0.00026324887
0.00026273085
0.0010972627
0.00092513671
0.00064620216
0.00081495097
0.00049987207
0.00042084164
0.00031737808
0.0023338785
0.0013497852
0.0021728849
0.00012501064
0.00011333271
0.00045454344
0.00012212497
0.00019701262
0.00060155324
0.00013824797
0.00013713933
0.00014945446
0.00044920354
0.00030454127
0.00030180437
0.00021948104
0.00120478
0.00028223412
0.00017338952
0.00019444732
0.0022365886
0.0015375585
0.0020010145
0.00065403664
0.00050071142
0.00067264295
0.00092198517
0.00073030185
0.00073286507
0.001456623
0.00138858
0.001729082
0.00014477299
0.00015499049
0.00013065356
9.1965873e-05
0.00010227852
0.00013852147
0.00010507819
0.00011737892
0.00015953672
0.00021024373
0.00017462009
0.00017323277
0.00016163155
0.00022902145
0.00020368544
0.00018956476
0.00018368025
0.00019202409
0.00021390353
0.00028003986
0.00022773952
0.00021595625
0.00027491155
0.00022502046
0.00072660196
0.0010879018
0.00075007621
0.00068538076
0.0010258859
0.00073459616
0.00033576355
0.00050437854
0.00052486789
0.00048754161
0.00051942932
0.00010771383
0.00014304499
0.00012478173
0.00017577617
0.00023705963
0.00020919441
0.00015614784
0.00016222174
0.00018536646
0.00031514548
0.00037574501
0.000354326
0.00024233586
0.00026480764
0.00029343434
0.00026237544
0.00030895887
0.00031670638
0.00023763411
0.00010510507
0.00096831457
0.0012112313
0.00084964232
0.00020237045
8.9222206e-05
2.2664198e-05
6.740138e-05
0.00062103657
0.00021874835
0.00060682474
0.00097942516
0.0010746818
0.0011389122
0.00011961001
5.5057171e-05
0.00016197075
0.00032077446
0.00043331514
0.0003887601
8.3323405e-06
3.1400409e-05
2.4934334e-05
1.7312292e-05
4.0001763e-05
5.1591924e-05
0.00091969251
0.001095353
0.00090378467
0.00018087261
0.00039932472
0.00051102576
0.0012687409
0.0011937166
0.0011992155
7.5487158e-05
0.00029941622
0.00022049658
0.00035797168
0.00032014247
0.00035586658
0.00053131553
0.0004936678
0.00055503325
0.00091770067
0.001016731
0.00093689148
0.00058601623
0.00068429663
0.00061519257
0.00081486571
0.00076083036
0.00084442504
0.0005435158
0.00047742547
0.0008328574
0.0008329932
6.5500915e-05
5.3644361e-05
4.2692567e-05
0.00015010278
0.00017132795
0.00011397294
0.00013379038
6.8149082e-05
8.7605154e-05
0.00096108815
0.00062208898
0.00077948366
0.0010342327
0.00099027417
0.0010816482
0.0010545661
0.00097439066
0.0010888666
0.00019983005
0.00039088207
0.00026788235
0.00050288727
0.00047318142
0.00035608232
0.00044020202
0.00036778293
0.00039392137
0.0012076831
0.00049396515
0.00055747317
0.00054883949
0.0006724835
0.00061085214
0.00060791882
0.00096822695
0.0008610867
0.00089377944
0.00079962378
0.00074245554
0.00081697318
0.00052646339
0.00073615119
0.004025597
0.010322989
0.012524991
0.010681587
0.0019576725
0.016897842
0.00077399467
0.0027465156
0.010478544
0.0041226862
0.0032616729
0.018762205
0.0080600495
0.0038117984
0.017488667
0.014083309
0.040185294
0.11431686
0.023859539
0.063466206
0.033431188
0.034225448
0.000105724
9.3686526e-05
0.00011349304
0.00012708856
0.00010709178
8.9566877e-05
9.1028607e-05
0.00010956767
0.00011452993
0.00020372421
0.00011429881
8.0419708e-05
1.1900591e-05
1.6797781e-05
2.5926445e-05
1.1853967e-05
1.1698244e-05
1.0092402e-05
1.0652519e-05
7.7441572e-06
6.7506314e-06
1.1865983e-05
1.1776495e-05
1.472173e-05
1.0566492e-05
1.3281401e-05
2.0797181e-05
1.8799078e-05
2.3426507e-05
3.6406521e-05
2.5797436e-05
3.3571888e-05
3.8734255e-06
1.4540003e-05
4.4642818e-06
0.00010922414
9.4956528e-06
0.0001076039
0.00024405072
5.9130471e-05
6.1856544e-05
3.6353428e-06
0.00011352558
1.2852103e-05
2.1104187e-06
3.3277268e-06
3.9488494e-05
9.3142074e-05
1.4495224e-05
1.4511977e-05
1.6926863e-05
1.848201e-05
2.0892102e-05
2.2199292e-05
2.6088686e-05
1.3321027e-05
1.3839467e-05
1.049691e-05
9.6492325e-06
5.6044439e-05
5.206389e-05
7.055629e-06
6.0284215e-06
1.3861511e-05
1.9086586e-05
6.3774446e-05
5.5616907e-05
1.9222923e-06
2.4877123e-06
3.4649013e-05
0.00016498924
6.6712932e-05
9.8584734e-06
9.9206568e-07
6.8554602e-06
8.559529e-05
0.00017716991
1.2017196e-05
6.1500268e-06
0.00022306108
3.6237276e-05
1.3479696e-05
1.3122939e-05
1.099475e-05
1.2787807e-05
7.9714712e-07
5.4193529e-06
1.0120179e-05
6.7646131e-06
8.8557091e-06
0.00017372956
6.5788814e-05
1.3454311e-05
1.3090224e-05
1.9191714e-05
1.436679e-05
1.2667266e-05
2.1563823e-05
3.1778971e-05
4.8676718e-05
3.6599801e-05
1.4830489e-05
1.4640885e-05
1.4970365e-05
1.918037e-05
1.5298139e-05
2.1291952e-05
3.3948572e-05
1.2513958e-05
1.4340629e-05
1.1569883e-05
8.275449e-06
1.3361326e-05
4.3924814e-05
5.4575815e-05
4.0882158e-05
1.4989612e-05
2.6387375e-05
1.1925818e-05
1.3452375e-05
1.3341011e-05
1.1450327e-05
9.4205874e-06
1.1729453e-05
1.110366e-05
1.2325736e-05
8.6367306e-06
9.1153437e-06
7.995067e-06
5.6697076e-06
1.1924463e-05
1.3392046e-05
1.3277618e-05
1.1708254e-05
1.6456793e-05
1.7256454e-05
9.1560201e-06
1.5717154e-05
1.210132e-05
1.8481774e-05
2.4396161e-05
2.1016504e-05
2.7757058e-05
2.6424712e-05
4.3901904e-05
4.5014993e-05
2.3465423e-05
4.1831207e-05
2.9870027e-05
6.8373353e-05
0.00019273314
6.4630293e-05
7.0341713e-06
1.1681258e-05
1.1185285e-05
0.00020986929
4.590389e-05
0.00011523198
0.00024374109
5.7118153e-05
0.0001281225
0.00026855888
6.7846587e-05
0.00026341078
6.0421416e-05
5.6062627e-06
1.5136666e-06
7.2088962e-06
3.2827917e-06
1.9714797e-05
9.4676531e-05
0.0001730201
0.00014155934
0.00014473247
6.0239298e-05
6.7884747e-05
1.2159935e-06
2.9918051e-06
9.3305338e-05
7.4285047e-05
8.1988741e-05
0.00015755296
0.00013436369
0.00012648556
4.4304853e-06
1.7977677e-05
7.9990863e-07
2.4052048e-06
3.9611075e-06
4.5206745e-06
1.3252508e-05
2.6161414e-05
0.00014171365
0.00011832243
1.4853553e-05
1.4202043e-05
1.4808372e-05
1.4442293e-05
1.5386118e-05
1.4476576e-05
1.7862388e-05
1.7647289e-05
1.5625127e-05
1.6779888e-05
2.4229115e-05
1.9374489e-05
2.8247939e-05
3.6081973e-05
1.3285809e-05
1.2566215e-05
1.3892325e-05
1.4225259e-05
1.0481644e-05
1.1713387e-05
9.8268922e-06
9.3836762e-06
6.2380696e-05
5.0934338e-05
4.7482658e-05
5.3023522e-05
0.00020365221
0.00013482589
0.00014230557
0.00010336894
9.8378616e-05
8.976135e-05
0.00014187806
0.00010748103
0.00011684042
8.414691e-06
9.5609457e-06
1.0143065e-05
5.0145427e-06
1.0563108e-05
1.5733622e-05
2.1440002e-05
2.7902672e-05
4.2135047e-05
8.2690156e-05
5.8552437e-05
4.6765252e-05
0.00010321943
6.6033085e-05
0.00010308371
9.4217449e-05
6.3823526e-05
9.9898122e-05
6.2310804e-05
4.9974834e-05
6.7376182e-05
5.3363947e-05
7.8759005e-05
7.2940929e-05
0.00010010642
6.6128692e-05
9.565082e-05
8.4648384e-05
6.3634302e-05
9.0369912e-05
0.0057659811
0.00086108285
0.00021734599
0.00015894599
0.00057951219
0.00092056756
0.00057360082
9.8964412e-05
0.00018527976
0.071478617
0.030474248
0.033423619
0.0076478229
6.1860601e-06
5.1349437e-06
3.947643e-06
1.0258221e-05
6.5635184e-06
1.0882055e-05
8.5291422e-06
4.8281667e-06
8.0365963e-06
4.1582515e-06
6.5890941e-06
7.0504539e-06
1.6538657e-05
3.7040129e-05
3.2714136e-05
2.3313351e-05
1.4131463e-05
3.107901e-05
3.3558068e-05
2.5267116e-05
2.5424806e-05
2.7507676e-05
2.9026289e-05
1.7619351e-05
1.5205983e-05
1.9467057e-06
1.8281613e-06
3.6509465e-05
3.4027728e-05
1.0217292e-06
1.8464644e-05
3.5100556e-05
1.3269211e-05
2.3253382e-06
1.5823413e-05
1.2476702e-05
1.5081478e-06
1.0581135e-05
3.9376209e-05
3.3304885e-05
2.0464232e-05
1.4145884e-06
8.9235575e-06
1.0207963e-05
4.0751089e-05
5.8198705e-06
2.0695766e-06
5.4679514e-06
1.7149835e-06
1.5590921e-05
1.8567062e-05
1.4672599e-05
4.6369655e-05
2.6991746e-05
2.5050472e-05
2.6398204e-05
3.314863e-05
1.3033834e-05
1.1341922e-06
4.5094142e-06
2.9471755e-05
1.1329614e-05
1.2952161e-05
3.8985541e-05
9.653397e-06
1.4096752e-05
2.1961159e-06
6.9490855e-06
1.4950657e-05
1.1519493e-05
9.0738134e-06
1.1742146e-05
1.6080118e-06
4.5584074e-06
1.1098823e-05
7.6211124e-06
2.8833151e-05
2.436669e-05
2.6948908e-05
3.0363457e-05
1.3117185e-06
4.3387124e-06
6.5235043e-06
9.1518839e-06
7.3075857e-06
9.8711781e-06
5.7638929e-05
1.618144e-05
1.888288e-05
3.6512251e-05
3.5728526e-05
3.1801147e-05
3.4259547e-05
2.2577843e-05
2.1130651e-05
1.3731352e-05
1.1665836e-05
3.7603542e-05
3.0517612e-05
2.9301526e-05
3.165613e-05
2.2778148e-05
2.5642249e-05
2.4892977e-05
2.7415642e-05
2.8124666e-05
2.9638266e-05
1.3872439e-05
1.655313e-05
1.7548166e-05
1.383229e-05
3.1969855e-05
1.3281155e-05
2.0128604e-05
1.2621398e-05
1.6483382e-05
2.3804914e-05
0.0002086134
0.00023750429
0.00022907166
1.0118745e-05
8.1209088e-06
9.2244668e-06
1.0190847e-05
1.6652735e-05
1.6814533e-05
7.7316784e-06
1.3458727e-05
1.2814223e-05
9.5491868e-06
1.5287935e-05
1.5823795e-05
7.2673418e-05
7.3761509e-05
7.0659246e-05
7.5349957e-05
8.1608662e-05
4.1504154e-05
5.7252595e-05
7.6271998e-05
7.2431698e-05
7.3304705e-05
8.2582964e-05
3.5555678e-05
6.1585599e-05
5.7597683e-05
6.2108767e-05
6.7429972e-05
6.8338438e-05
6.5003045e-05
8.2616624e-05
8.3548909e-05
4.7712051e-05
4.545696e-05
4.0969606e-05
3.5542112e-05
5.1618283e-05
7.8913261e-05
7.988088e-05
7.4548484e-05
2.4464491e-06
6.3450215e-05
3.2224574e-06
7.1756694e-05
6.5171624e-05
7.3712814e-05
2.8455952e-06
0.00012218523
4.9507934e-05
3.642336e-05
4.0478231e-05
2.9692964e-06
4.3796692e-05
0.00012105615
5.1435927e-05
1.8668689e-05
5.6161947e-05
3.3768636e-06
2.1257839e-05
2.3024656e-05
4.8642234e-05
0.00016979526
8.0286712e-05
6.8129485e-05
2.4561361e-06
1.9347347e-05
1.6708015e-05
2.3782821e-05
5.3037054e-05
3.2942068e-06
2.0188394e-05
2.2484184e-05
6.7280585e-05
7.4887263e-05
8.1375995e-05
8.0109658e-05
3.449728e-06
9.2931108e-06
7.8298228e-05
6.367044e-05
6.8906737e-05
8.0492125e-05
7.6403232e-05
8.3044055e-05
2.717755e-06
8.5030622e-06
2.2701001e-05
1.9600466e-05
3.0868789e-06
8.8729136e-06
2.7096647e-05
6.444329e-05
2.9047374e-05
2.3699785e-05
9.1379267e-05
5.2492062e-05
7.5446441e-05
2.7606835e-05
7.9160978e-05
8.1759918e-05
3.439322e-06
1.0057012e-05
1.5305447e-05
2.3092154e-05
1.6633247e-05
2.3307166e-05
7.6942821e-05
0.00010164769
6.4077542e-05
6.0318302e-05
5.3384725e-05
6.5066371e-05
6.8832604e-05
9.069262e-05
9.6115916e-05
5.9646543e-05
2.5874528e-06
7.3396045e-06
1.4091941e-05
1.8479231e-05
1.216554e-05
1.7596371e-05
3.196248e-06
9.8336506e-06
1.4705157e-05
2.1001266e-05
1.628637e-05
2.1781033e-05
6.7212673e-05
8.1113295e-05
8.1950292e-05
7.3367361e-05
7.8336546e-05
7.2251906e-05
6.9419687e-05
7.7879702e-05
7.5235275e-05
7.9992364e-05
3.8463611e-05
4.7158069e-05
3.5781642e-05
5.2922656e-05
5.2431021e-05
6.3649241e-05
7.884509e-05
7.5587464e-05
6.6717886e-05
6.9143925e-05
7.2434548e-05
6.9950764e-05
7.6199073e-05
8.2721822e-05
3.2841397e-05
2.9405289e-05
5.6751388e-05
6.5522049e-05
5.2327237e-05
5.5840828e-05
6.6225561e-05
6.0771127e-05
7.8248587e-06
6.1395864e-05
6.6560034e-05
3.2428587e-05
4.4684873e-05
5.9177827e-05
1.333978e-05
5.8984094e-05
6.758451e-05
2.8281159e-05
4.8943778e-05
6.7632182e-05
6.6461004e-05
8.0991568e-05
8.2122514e-05
8.3601509e-05
8.3035219e-05
2.1676774e-05
2.0641266e-05
4.3146784e-05
4.6536708e-05
5.8012634e-05
2.9646372e-05
3.6737286e-05
2.4688537e-05
2.6003776e-05
5.2645011e-05
7.6946971e-05
8.082904e-05
7.9927691e-05
8.1748406e-05
7.3948288e-05
7.3735114e-05
6.9025868e-05
9.9946023e-05
4.9215213e-05
5.5389793e-05
0.0004524088
0.047432137
0.014954198
0.065966625
0.026536033
0.0012426043
0.00049818252
0.0029836505
0.0025289246
0.00058902409
0.00040464405
0.0019591485
0.0036644979
0.0006155053
0.00035775469
0.00041705477
0.00095600102
0.00039045717
0.0011983705
0.00029946876
0.0009752054
0.00099503999
0.0021492769
0.0014823594
0.00095033864
0.0025340677
0.0018203787
0.001715462
)


764
(
0.00119775
0.001191778
0.0120807
0.0040197644
0.00227388
0.0024477646
0.0057355044
0.00025699186
0.010756384
5.9716284e-05
0.0022436578
8.3442548e-05
4.303255e-05
0.0013368727
5.5568298e-06
0.0011290313
0.00086748692
0.00010033137
8.978005e-05
0.0010516277
0.0013906051
0.00010191825
0.00042557552
0.00031713969
1.7564659e-05
0.00011943657
4.5778122e-05
1.3420356e-05
0.00010627766
0.00020021862
0.00025638169
9.3133577e-05
0.0001191429
0.00018107057
0.00013121331
0.0014213859
0.0022017166
0.0019602736
0.00018239228
5.6782368e-05
0.00011407393
0.00023338341
0.00014014581
0.00015222228
2.8428707e-05
5.0855861e-05
0.00020957319
0.00065016777
0.00014644659
0.00012800308
0.00011611751
9.413143e-05
0.00017094797
0.00013231461
0.00019157463
0.00010129922
0.00020069406
0.0007436339
0.0012055808
0.0008167994
0.00086025803
0.0013274702
0.00086001468
0.00010281006
0.00018093362
0.00019866662
0.00017456598
0.00016384393
0.00016485334
0.00021963968
0.000179853
0.00020790496
0.0002386263
0.00019439767
8.3141939e-05
7.0790582e-05
0.00012267148
9.7819098e-05
8.9002408e-05
9.9554341e-05
0.00010902625
9.1567851e-05
9.3826691e-05
0.00010470631
0.00014992476
0.00016276072
0.00013552761
0.00010992943
0.00014589452
0.00012206813
0.00079151314
0.0011023675
0.00063664047
0.0017095365
0.0019835852
0.0002577022
0.00028676553
0.00032056889
0.00018686733
0.00025640192
0.00022434873
0.00016470875
0.00015656428
0.00019610259
0.00011909116
0.00015815266
0.00012633262
0.00017592647
8.3754034e-05
0.00024557971
7.5768227e-05
0.0001009493
9.215832e-05
0.0001272821
3.1438056e-05
9.3285584e-05
2.3885056e-05
7.440812e-06
2.5209097e-05
9.8292812e-05
0.00011369702
0.0001104157
6.682352e-05
6.9491064e-05
8.154328e-05
2.331741e-05
5.2603586e-05
6.9410461e-05
3.4097821e-05
5.6024676e-05
4.1250835e-05
1.0271302e-05
4.0697118e-05
3.2016234e-05
9.6035744e-05
0.00010272936
0.00010667302
9.4879879e-05
0.00010784843
0.0001131798
0.00010300329
0.00011638751
0.00011851519
9.8694599e-05
0.00011909156
0.00011687634
0.0001033427
0.00011999076
0.00011974471
0.00029193489
0.00058742768
0.00040380792
0.00013302734
0.00016717612
0.00012208272
9.1512061e-05
0.00014814529
0.00010756475
0.00021276401
0.00023190978
0.00015672261
0.00017414832
8.7964606e-05
0.00011605029
7.4036825e-05
6.8607503e-05
5.387645e-05
0.00013767915
0.00014627506
0.00013179379
0.00014118456
0.00019783736
0.00014692975
0.00020055178
0.00015207955
0.00015048483
0.00014369868
0.00018922906
0.00014765363
0.00015197151
0.00019447883
0.00015042531
0.0033976861
0.00048090015
0.003538634
0.0037913126
0.010257716
0.0068686588
0.00039771614
3.2290814e-05
0.00062444791
0.00024700348
0.00036206428
0.0067900289
5.5471912e-05
0.00039494319
0.00039782205
0.00038257941
0.0017813329
0.00022579872
0.0017615242
0.0054843922
0.00030280625
0.00047735043
0.0023958174
0.00016534301
0.0010789338
0.0022757678
0.00022637353
0.0014032704
0.00022532849
0.00027381528
0.00027736918
0.0002939611
0.00033176128
0.00016527031
0.0010669653
0.0022747078
0.00022652234
0.0012339236
0.00016428467
0.00029830286
0.0002720272
0.00029829708
0.00027060974
0.00017723042
0.00025378658
0.0055730854
0.0024278346
0.005463681
0.0073672513
0.0055599319
0.0036589079
0.0034428959
0.005187907
0.0072991241
0.0054169499
0.00019935792
0.00019665657
0.0014018964
0.00030434743
0.00035850417
0.0016408414
0.00032444452
0.00019935472
0.00019662258
0.00046556725
0.00020212247
0.00029530809
0.0003583664
0.001572633
0.00031623304
0.00011854999
0.00014729432
0.0043580801
0.0042055949
0.0034532034
0.00036474047
0.00052846917
0.00075248379
0.001115295
0.00039076598
0.00083583192
0.0020635891
0.0031834788
0.0026835226
0.00023946278
0.00029366674
0.00023599302
0.00018390289
0.00019140356
0.00028471885
0.00021973286
0.00022927935
0.0002394795
0.00029346352
0.00023600389
0.00018369748
0.00019131972
0.00028400332
0.0002192652
0.00022918745
0.00017405417
0.00016251649
0.00014546584
0.0002108955
0.00017219873
0.00020646083
0.00023405032
0.00019102663
0.0046412954
0.0042769259
0.0036940359
0.0022019811
0.0032369717
0.0028748416
0.00019615753
0.0018286367
0.0023003536
0.0033381821
0.0028191057
0.00028170228
0.00038383459
0.00035181474
0.0003524704
0.00045818847
0.00044975125
0.00034084719
0.00041051266
0.00043411566
0.0002691606
0.00037543167
0.00030353987
0.00035149991
0.00045787222
0.00044482685
0.00033546039
0.00035626909
0.00042138955
0.00014540781
6.6264843e-05
0.0011903819
0.00039645205
0.0010442562
0.00012592127
0.0011257962
0.0003592657
0.0010198367
0.00015933385
8.2738532e-05
0.00023874506
0.00039038984
0.00061526122
0.00061694655
0.0011260453
0.00035951657
0.0010198344
0.00020729779
0.00031627287
0.00028668586
0.00011802141
0.00047880672
0.00034408375
0.00029577992
0.00065071409
0.00084421166
0.00025314304
0.00048535147
0.0003755282
0.00011772656
0.00047599198
0.00034007589
0.00045579895
0.00056603618
0.00060886322
0.00029604314
0.00064876858
0.00084310826
0.00023350107
0.0002396288
0.00026448732
0.00031678765
0.00035555842
0.00039381911
0.00044254914
0.00060957836
0.00058521957
0.00033872977
0.00046771802
0.00042918194
0.0004156384
0.0005073811
0.00054669515
0.00010243329
0.00024607675
0.00032584121
0.00016900763
0.0007917003
0.00076864912
0.00055951284
0.0017315077
0.0020832454
0.0015769063
0.0017778715
0.0010300522
0.0013187552
0.0006877231
0.00074853906
0.00053657812
0.00084350157
0.0012339146
0.00086059921
0.00078389278
0.0012217229
0.00083945208
0.0017312208
0.0020628723
0.0015735597
0.0017318322
0.0010065393
0.0012996761
0.00037907784
0.00037190198
0.00033830568
0.00033364207
0.00042636522
0.00059995107
0.00047415032
0.00057963479
0.00066956006
0.00052501202
0.00080513777
0.0010218511
0.00075412593
0.00093115564
0.00063733711
0.0006965096
0.00026001335
0.00030888352
0.1082445
0.050472972
0.010850655
0.02007279
0.050614371
0.032670655
0.028541434
0.0082093127
0.017875949
0.0032215384
0.00065700539
0.00064324293
0.00068549299
0.0012366277
0.0023260799
0.0010363207
0.0013348583
0.00040798372
0.00047643916
0.0006403478
0.03408499
0.032111144
0.0017099047
0.0018651928
0.0031808622
0.0025747393
0.0012549949
0.002443506
0.011159378
8.2677949e-06
7.4971189e-06
6.4356686e-06
1.3703886e-05
8.4839983e-06
1.4060388e-05
1.2445405e-05
7.231247e-06
1.2029611e-05
6.6529413e-06
1.0742434e-05
1.1279117e-05
5.9059298e-05
5.7396404e-05
5.8148505e-05
5.4958644e-05
2.6804527e-05
5.7583435e-05
5.1582109e-05
3.7472938e-05
2.2951118e-05
5.9102115e-05
5.4706365e-05
4.9216315e-05
5.2168912e-05
3.9860287e-05
4.0730772e-05
4.3252285e-05
5.416917e-05
3.4331544e-05
5.245636e-05
4.445697e-05
0.00022097215
0.00010077236
9.6431033e-05
4.9781209e-05
4.2174907e-05
2.8028889e-05
2.4235875e-05
5.9785143e-05
6.1697245e-05
6.264159e-05
7.1006997e-05
2.6856684e-06
2.5975812e-06
0.00023656703
0.00021899094
0.00011429903
0.000213321
8.5031592e-05
0.00019171638
0.00012012195
4.8608789e-05
4.675907e-05
0.00010333433
1.693272e-06
3.036815e-05
1.827772e-05
2.9019959e-06
1.9727458e-05
1.7698065e-05
2.3130054e-06
1.6203829e-05
0.00014666904