/*--------------------------------*- C++ -*----------------------------------*\
  =========                 |
  \\      /  F ield         | OpenFOAM: The Open Source CFD Toolbox
   \\    /   O peration     | Website:  https://openfoam.org
    \\  /    A nd           | Version:  8
     \\/     M anipulation  |
\*---------------------------------------------------------------------------*/
/*   Windows 32 and 64 bit porting by blueCAPE: http://www.bluecape.com.pt   *\
|  Based on Windows porting (2.0.x v4) by Symscape: http://www.symscape.com   |
\*---------------------------------------------------------------------------*/
FoamFile
{
    version     2.0;
    format      ascii;
    class       scalarListList;
    location    "constant/vegetation";
    object      kcLAIboundary;
}
// * * * * * * * * * * * * * * * * * * * * * * * * * * * * * * * * * * * * * //


5
(

284
(
0
3.1614422
0.057640424
0
0
0.01016147
0
0.16344349
2.0900172
0.33619674
0
0.038767963
0
0
1.003252
3.527884
2.9712913
1.541199
0.54995107
3.4484935
0
0.21064437
0
0
0.024677465
0
0
0
0.0052242294
0
0
0
0
0
0
0
0
0
0
0
0
0
0
0
0
0
0
0
0
0
0
0
0
0
0
0
0
0
0
0
0
0
0
0
0
0
0
0
0
0
0
0
0
0
0
0
0
0
0
0
0
0
0
0
0
0
0
0
0
0
0
0
0
0
0
0
0
0
0
0
0
0
0
0
0
0
0
0
0
0
0
0
0
0
0
0
0
0
0
0
0
0
0
0
0
0
0
0
0
0
0
0
0
0
0
0
0
0
0
0
0
0
0
0
0
0
0
0
0
0
0
0
0
0
0
0
0
0
0
0
0
0
0
0
0
0
0
0
0
0
0
0
0
0
0
0
0
0
0
0
0
0
0
0
0
0
0
0
0
0
0
0
0
0
0
0
0
0
0
0
0
0
0
0
0
0
0
0
0
0
0
0
0
0
0
0
0
0
0
0
0
0
0
0
0
0
0
0
0
0
0
0
0
0
0
0
0
0
0
0
0
0
0
0
0
0
0
0
0
0
0
0
0
0
0
0
0
0
0
0
0
0
0.39483148
0.79823453
3.0909521
1.9598667
0.82264285
0.45404677
1.174267
1.0650911
1.7351818
0.42966747
3.6842276
2.5121211
1.2204435
0.67577204
2.9077285
0.78206298
2.1619191
3.2714527
0.36504889
0.24879027
1.5832388
0.79852131
)


284
(
0
3.6111115
2.1023186
0
0
1.036269
0
2.530276
3.2444785
2.5085182
0
0.37791374
0
0.0065481576
0.036129562
2.3758864
2.6017686
0.46124071
0.47525528
2.898213
0.0024787932
2.6004261
0
0.49856571
1.623592
0.046176516
1.3182672
1.4643718
1.9656304
0
0.084925804
0.8045482
0
0
0
0
0.054834343
0
0
0.45658152
0
0
0
0
0
0
0
0
0.93141992
0.21471215
0.1828534
1.1522842
0.27877193
0
0
0
0
0
0
0
0.15385496
0
0.00071279624
0
0
0
0
0
0
0
0.0064195994
0
0.11217615
0.14540785
0.21718355
0.035745859
0.093935927
0.0014023694
0.092589061
0.0023868936
0
0
0
0
0
0
0
0
0
0
0
0
0
0
0
0
0
0
0
0
0
0
0
0
0
0
0
0
0
0
0
0
0
0
0
0
0
0
0
0
0
0
0
0
0
0
0
0
0
0
0
0
0
0.021273747
0
0
0
0
0
0
0
0
0.0044658847
0
0
0
0
0
0
0
0
0
0
0
0
0
0
0
0
0
0
0
0
0
2.5659232e-05
0
0
0
0.53494515
0.94107012
0.64484101
0
0
0
0
0
0
0.32929923
0.09126753
0.072034963
0
0
0
0.64321753
0.66200848
0.43255375
1.0569969
0.82290079
0.75672197
0
0
0
0
0
0
0
0
0
0.030181378
0
0.016831966
0
0
0
0
0
0
0
0
0
0
0
0
0
0
0
0
0
0
0
0.096204909
0.41578306
0.25232113
0.24891396
0.21668735
0.33212022
0.28340809
0.50592097
0.45510758
0
0
0
0
0
0
0
0
0
0.15939755
0.053151232
0.042744104
0.0041345482
0
0.0040622454
0
0
0
0
0
0
0
0
0
0
0
0
0
0
0
0
0
0
0.44825113
0.97317124
3.3516339
2.2328682
1.3398421
0.66046107
1.9175487
1.2548509
2.4314376
0.43795448
3.2720693
2.6152284
1.5186851
1.1857907
2.4057738
0.63616223
2.8227706
3.3066223
0.39746521
0.3172876
1.3090346
0.83630693
)


284
(
0
2.7355422
3.1590129
0
0
2.8616858
0
3.1565525
2.5879304
3.4454549
0.052068112
0.77908221
0
1.1716018
2.2890174
1.1800065
1.4722674
0.29683387
0.18761525
1.2316628
2.1920718e-05
3.3482131
0.00014919942
2.4087009
1.918789
0.63556818
3.0316524
2.9593022
3.2190213
0.36860597
1.7327977
2.9350491
0
0
0
0
1.5757645
0
0
2.6375738
0
0
0
0
0.74364472
0
0
0
2.7485624
1.8807045
2.6449173
2.9844159
2.3788297
0
0
0
0
0
0.1389493
0.040399729
2.4841572
0.38942298
0.28817152
0
0
0
0
0
0
0
0.96850157
0
1.4638216
2.2893747
2.1189543
0.4108557
1.0250813
0.33869634
2.0101906
0.4697175
0
0
0
0
0
0
0
0
0
0
0
0
0
0
0
0
0
0.20636222
0.11791318
0.04710941
0
0
0.0060346804
0.027600568
0
0.0084522647
0
0.050217643
0.021286381
0
0
0
0
0
0
0
0
0
0
0
0
0
0
0
0
0
0
0
0
0
0
0
0
0.80707306
0.27732724
0.28404831
0.0013406068
0.14377577
0.12276127
0
0
0
0.10261721
0.009542958
0
0
0
0
0
0
0
0
0
0
0
0
0
0
0
0
0
0
0
0
0.01827314
0
0.026901598
0
2.8952268
3.0342872
3.0034846
0
4.5091871e-05
1.568332e-05
0
0
0
2.656003
1.8215104
1.7485635
0
0
0
1.8836264
2.5137147
1.6371933
3.0795186
2.8322058
3.0296916
0
0
0
0.00024146151
0.090370353
7.9753696e-05
0
0
0
1.0737256
0.29988971
0.95339034
0
0
0
0
0
0
0
0
0
0
0
0
0
0
0
0
0
0
0
1.1870751
2.1996616
1.4139367
2.8633221
2.7613709
2.9664192
2.8088805
2.6523687
2.973217
0.0025234952
0.047260488
0
0
0
0
0.0043090141
0.010262971
0.0018700727
2.6894023
1.6306619
1.7017845
0.78702412
0.24915522
0.83700097
0
0
0
0
0
0
0
0
0.0018760192
0
0
0.018878648
0
0.0094951653
0
0
0
0
0.62830724
1.3124145
2.9273334
2.5794961
1.7681208
0.93044761
2.4400255
1.2088098
2.6580701
0.45497482
2.4846515
2.6199621
1.6189666
1.5642906
1.585025
0.55208598
2.9622362
2.7202678
0.51791546
0.42328251
0.86543717
0.78218876
)


284
(
0
3.5229877
2.8871137
0
0.00020172339
2.8239893
0
1.7568289
1.7974538
2.8794756
0.50195984
0.75753631
0
2.1352714
3.0773758
3.0257357
3.1446226
2.411818
0.45305319
2.1267005
0.330588
2.8056097
0.0030205296
2.606071
0.20827097
1.0033944
2.8657837
1.3851663
2.5630207
1.2997302
3.0303652
2.8897729
0
0
0
0
2.7960983
0.00028948647
0
2.8647244
0
0.1458357
0
0.084909406
2.5747557
0
0
0.27339233
1.4579387
1.2112777
2.9569826
2.5211661
2.4417077
0
0
0
0
0
0.94476041
1.0451279
2.8823642
1.8021424
1.90581
0
3.9732388e-05
0
0.00020525609
0
0
0
2.6481495
0.45870579
2.4552278
3.1368478
2.6532491
0.46792937
0.47439707
1.8993788
2.8325361
2.1165716
0
0
0
0
0.00022130673
0.038701036
0
0
0
0.015560557
0
0
0.001077798
0.018533204
0
0
0
1.6644193
1.7636437
1.2017586
0
0.030442824
0.28779302
0.49878998
0
0.38038273
0.082091107
0.96037071
0.60331724
0
0
0
0
0
0
0
0
0
0.00012116475
0
0
0
2.1755498e-06
0
0
0
0
0
0
0
0
0
0
2.1066439
1.8823574
1.092094
0.11948845
1.1399208
0.43188663
0
0.0035181914
0.0504584
0.49648
0.22300174
0
0
0
0
0.00056005768
0
0
0
0
0
0
0
0.00078651269
0.0021152135
0.0013835059
0
0
0
0
0
0.61196192
0
0.92154829
0
2.8840563
2.8336463
2.8469168
0.00021826956
0.0023669331
0.0011067878
0
0.0018655899
0
2.85951
2.76305
2.7754623
0
0
0
0.45224076
1.3751394
0.4189438
2.7147494
2.5308463
2.7266845
0
0
0
0.30505234
1.0358176
0.37131373
0
0
0
2.5287469
1.8988493
2.5615014
0
0
0
0
0
0
0
0.0015869021
0.0018527324
0
0
0
0
0
0.001151031
0
0
0
0
0.34955576
1.2876156
0.38596101
2.8809663
2.9619192
2.8631921
2.7881982
2.5403723
2.7385605
0.40325835
1.119076
0.42777899
0.11715433
0.740749
0.21805356
0.36017876
0.85393763
0.30077653
2.854697
2.7426004
2.7852823
2.4726572
1.9984584
2.5926691
0.00015512131
0
0
0
0
0.044342014
0
0
0.16511233
0
0.021690313
0.47618016
0.01486444
0.43948683
0
0.0070180475
0
0
0.90996648
1.7988831
2.5350306
2.4234152
2.0798086
1.1876934
2.5119207
1.1257713
2.6893378
0.72655419
3.2031575
1.8936376
1.4341567
1.974606
3.04989
0.5273456
2.7054143
2.3023284
0.70019122
0.55295152
1.4153592
0.75974919
)


284
(
0
3.7821906
4.3756465
0
0.011284387
4.7142139
0
0.22897721
0.1394647
4.7002494
2.2547589
3.3137909
1.2877973e-05
4.4079843
1000
1000
1000
1000
1000
1000
1000
3.7406259
0.13842864
4.6863676
0
3.6853415
4.4030038
0.14548305
1.5802495
3.7753789
2.8025652
4.6560168
7.4979924e-07
0
0
0
3.00749
0.0070939672
0.12155315
4.7208117
0
0.64779359
0
0.93826212
2.8453615
0
0.07075074
1.6539114
0.16055922
0.2279133
4.2119702
0.50591003
0.63306264
0
0
0
0
0.083598101
3.4080625
3.0985259
4.3411369
4.1219935
3.6776849
0
0.045220452
0.00076114936
0.059884124
0.0035759705
0
0.0027644344
2.6897877
1.3512177
1.2858536
3.1332157
1.4408858
0.093244447
0.12877106
2.6853911
3.5049108
3.1247629
0
0
0.0033890534
0
0.14222293
0.1312097
0.0025503933
0
0
0.54893201
0
0.0077395428
0.18283198
0.52153314
0.010055818
0
0
2.558267
2.7753901
2.4662385
0.0018011048
0.83622798
1.6561428
2.1555627
0.0045432054
1.7643477
1.2516963
2.3109725
2.0176158
0
0.021679273
0
0
0
0.0030463274
0
0
0
0.044807928
0
0
0
0.0044754786
0
0
0
0
0
0
0
0
0.00054039587
0
1.1457137
2.5384037
1.0124171
0.44337544
2.1865712
0.94628134
0
0.015334374
0.037041655
0.052543135
0.042897303
0
0
0
0.069527048
0.24906128
0.1177169
0.010167969
0.0040828768
0.018050999
0.0015898429
0.015333253
0.0028254587
0.13526531
0.31558243
0.23477368
0.015423866
0.016871686
0.03953731
0
0
2.2022879
0.099154417
2.661096
0
4.6072567
4.2302661
4.1389734
0.030193793
0.041106764
0.15730207
0.13726007
0.61777009
0.66294472
4.7015911
4.6908178
4.6767806
0
0
0
5.1174012e-05
0.16937172
0.00052647945
2.787021
0.54745765
2.7477543
0.059572009
0.43791025
0.30270399
1.2125583
3.3298781
1.2955001
0.11066569
0.55430578
0.66889923
4.5624773
4.0322258
4.4882724
0
0
0
0
0
0
0.03957798
0.53497013
0.32860541
0
0.021668392
0
0.014404606
0.047073889
0.12917245
0
0
0
0
0.013153889
0.17860549
0.0010234472
4.5589483
3.6871344
4.0471462
2.5498941
0.58698816
2.7053733
1.4485745
3.2506765
1.3961071
1.2993509
2.2212359
1.3513948
1.4154816
2.2971752
1.3933156
4.6826704
4.3304275
4.6600605
4.0855166
3.9357999
4.4079599
0.12381547
0.2664471
0.058520624
0
0.20102937
1.1766201
0.28951442
0.46021856
1.4988036
0.3849406
1.1969397
2.0195244
0.93313752
1.8892297
0.53209519
0.66579676
0
0
1.1902083
1.9660564
4.4856052
4.0773928
2.2774498
1.4104609
2.4607441
2.9048807
2.4053395
0.98247582
4.0378962
1.4923488
0.98805354
2.0696964
3.6861484
2.3055005
3.7045113
3.769439
0.72615256
0.56535821
3.2614834
1.4731304
)

)


// ************************************************************************* //
