/*--------------------------------*- C++ -*----------------------------------*\
  =========                 |
  \\      /  F ield         | OpenFOAM: The Open Source CFD Toolbox
   \\    /   O peration     | Website:  https://openfoam.org
    \\  /    A nd           | Version:  8
     \\/     M anipulation  |
\*---------------------------------------------------------------------------*/
/*   Windows 32 and 64 bit porting by blueCAPE: http://www.bluecape.com.pt   *\
|  Based on Windows porting (2.0.x v4) by Symscape: http://www.symscape.com   |
\*---------------------------------------------------------------------------*/
FoamFile
{
    version     2.0;
    format      ascii;
    class       scalarListList;
    location    "constant/vegetation";
    object      solarLoadFineFaces;
}
// * * * * * * * * * * * * * * * * * * * * * * * * * * * * * * * * * * * * * //


5
(

588
(
717.08284
717.08284
717.08284
30.378927
717.08284
717.08284
717.08284
717.08284
30.378927
717.08284
717.08284
717.08284
717.08284
717.08284
717.08284
717.08284
717.08284
717.08284
717.08284
717.08284
717.08284
717.08284
717.08284
717.08284
717.08284
21.058565
36.741249
717.08284
717.08284
717.08284
717.08284
717.08284
717.08284
717.08284
30.378927
22.798571
262.94355
21.058565
21.058565
717.08284
717.08284
30.378927
88.692397
22.798571
717.08284
717.08284
717.08284
262.94355
262.94355
717.08284
717.08284
717.08284
717.08284
22.798571
88.692397
22.798571
22.798571
717.08284
717.08284
717.08284
717.08284
717.08284
717.08284
717.08284
717.08284
717.08284
717.08284
717.08284
717.08284
717.08284
717.08284
717.08284
717.08284
717.08284
717.08284
717.08284
717.08284
717.08284
717.08284
717.08284
717.08284
36.741249
36.741249
36.741249
717.08284
717.08284
717.08284
153.5448
153.5448
21.058565
717.08284
717.08284
717.08284
717.08284
717.08284
717.08284
717.08284
717.08284
717.08284
717.08284
717.08284
717.08284
717.08284
717.08284
717.08284
717.08284
717.08284
717.08284
717.08284
717.08284
717.08284
717.08284
717.08284
717.08284
717.08284
717.08284
717.08284
717.08284
717.08284
717.08284
717.08284
717.08284
717.08284
717.08284
717.08284
717.08284
717.08284
717.08284
717.08284
717.08284
717.08284
717.08284
717.08284
717.08284
717.08284
717.08284
717.08284
717.08284
80.639504
80.639504
80.639504
80.639504
80.639504
80.639504
80.639504
80.639504
80.639504
80.639504
80.639504
80.639504
80.639504
80.639504
80.639504
80.639504
80.639504
80.639504
80.639504
80.639504
80.639504
80.639504
80.639504
80.639504
80.639504
80.639504
80.639504
80.639504
80.639504
80.639504
80.639504
80.639504
80.639504
80.639504
80.639504
80.639504
80.639504
80.639504
80.639504
80.639504
80.639504
80.639504
80.639504
80.639504
80.639504
80.639504
80.639504
80.639504
80.639504
80.639504
80.639504
80.639504
80.639504
80.639504
80.639504
80.639504
80.639504
80.639504
80.639504
80.639504
80.639504
80.639504
80.639504
80.639504
80.639504
80.639504
80.639504
80.639504
80.639504
80.639504
80.639504
80.639504
80.639504
80.639504
80.639504
80.639504
80.639504
80.639504
80.639504
80.639504
80.639504
80.639504
80.639504
80.639504
80.639504
80.639504
80.639504
80.639504
80.639504
80.639504
80.639504
80.639504
80.639504
80.639504
80.639504
80.639504
80.639504
80.639504
80.639504
80.639504
80.639504
80.639504
80.639504
80.639504
80.639504
80.639504
80.639504
80.639504
80.639504
80.639504
80.639504
80.639504
80.639504
80.639504
80.639504
80.639504
80.639504
80.639504
80.639504
80.639504
80.639504
80.639504
80.639504
80.639504
80.639504
80.639504
80.639504
80.639504
80.639504
80.639504
80.639504
80.639504
80.639504
80.639504
80.639504
80.639504
80.639504
80.639504
80.639504
80.639504
80.639504
80.639504
80.639504
80.639504
80.639504
80.639504
80.639504
80.639504
80.639504
80.639504
80.639504
80.639504
80.639504
80.639504
80.639504
80.639504
80.639504
80.639504
80.639504
80.639504
80.639504
80.639504
80.639504
80.639504
80.639504
80.639504
80.639504
80.639504
80.639504
80.639504
80.639504
80.639504
80.639504
80.639504
80.639504
80.639504
80.639504
80.639504
80.639504
80.639504
80.639504
80.639504
80.639504
80.639504
80.639504
80.639504
80.639504
80.639504
80.639504
80.639504
80.639504
80.639504
80.639504
80.639504
80.639504
80.639504
80.639504
80.639504
80.639504
80.639504
80.639504
80.639504
80.639504
80.639504
80.639504
80.639504
80.639504
80.639504
80.639504
80.639504
80.639504
80.639504
80.639504
80.639504
80.639504
80.639504
80.639504
80.639504
80.639504
80.639504
80.639504
80.639504
80.639504
80.639504
80.639504
80.639504
80.639504
80.639504
80.639504
80.639504
80.639504
80.639504
211.31087
61.331104
0
0
62.515721
475.09899
7.5990235
0
0
94.279403
0
335.29903
0
528.63839
0
0
0
0
0
82.123038
0
0
0
0
243.51183
185.72141
215.01553
34.888781
171.86369
0
0
0
0
27.520506
0
9.0739127
0
0
0
0
0
0
63.09356
295.08279
159.74303
390.57251
202.01285
28.488311
3.5214715
78.383979
26.960602
140.31397
0
0
0
0
75.670753
0
0
0
0
0
0
0
0
277.77483
268.52373
282.44039
305.96201
400.27964
426.37684
401.26906
567.69609
434.08358
0
0
0
0
0
0
10.73021
17.842326
24.828032
0
0
0
0
0
0
0
0
0
0
0
0
0
79.6954
0
0
0
0
0
0
0
8.6543467
0
130.41632
160.80298
7.506314
264.31705
119.51241
148.71
302.56227
367.90935
408.04826
0
0
0
0
58.146256
38.785664
107.35791
206.21765
0
0
0
0
15.422515
0
118.76259
176.74884
150.59173
0.30756374
0
160.07782
0
85.626714
252.9878
281.94906
362.48873
239.33377
164.86702
308.92538
176.02404
390.54631
279.86065
163.86413
431.40772
97.58629
143.65111
28.490468
65.912222
13.077419
0
0
0
0
0
0
0
0
0
0
0
0
0
0
0
0
0
0
0
265.08635
283.82763
249.23075
131.22397
160.41897
303.8775
296.88309
291.55376
389.81533
442.09961
420.08526
0
0
0
0
0
0
0
0
0
0
0
0
0
0
0
0
0
0
0
0
0
0
9.8707424
119.65258
137.16813
150.92907
163.60215
14.887839
6.4399999
20.197979
146.64759
128.77544
129.44144
0
290.33904
)


588
(
585.76158
585.76158
585.76158
15.82833
71.56415
585.76158
585.76158
585.76158
15.82833
585.76158
46.648317
22.838195
47.674404
22.838195
46.648317
585.76158
585.76158
585.76158
47.674404
585.76158
585.76158
585.76158
585.76158
585.76158
585.76158
54.436041
43.429731
585.76158
585.76158
585.76158
585.76158
585.76158
585.76158
585.76158
15.82833
32.288136
564.97602
54.436041
585.76158
585.76158
585.76158
15.82833
22.838195
32.288136
585.76158
585.76158
585.76158
585.76158
585.76158
585.76158
585.76158
585.76158
585.76158
32.288136
22.838195
585.76158
32.288136
585.76158
585.76158
585.76158
71.56415
43.488075
47.674404
585.76158
585.76158
585.76158
47.674404
585.76158
585.76158
46.648317
43.488075
43.488075
115.50581
115.50581
46.648317
585.76158
585.76158
585.76158
585.76158
585.76158
585.76158
43.429731
43.429731
43.429731
585.76158
585.76158
585.76158
585.76158
369.3232
54.436041
585.76158
585.76158
585.76158
585.76158
585.76158
585.76158
585.76158
585.76158
585.76158
585.76158
585.76158
585.76158
585.76158
585.76158
585.76158
135.44167
585.76158
585.76158
82.046196
82.046196
585.76158
585.76158
585.76158
585.76158
585.76158
585.76158
585.76158
71.56415
585.76158
585.76158
585.76158
585.76158
585.76158
585.76158
585.76158
585.76158
585.76158
585.76158
585.76158
43.488075
585.76158
585.76158
585.76158
585.76158
585.76158
585.76158
585.76158
585.76158
227.80796
227.80796
227.80796
227.80796
227.80796
227.80796
227.80796
227.80796
227.80796
227.80796
227.80796
227.80796
227.80796
227.80796
227.80796
227.80796
227.80796
227.80796
227.80796
227.80796
227.80796
227.80796
227.80796
227.80796
227.80796
227.80796
227.80796
227.80796
227.80796
227.80796
227.80796
227.80796
227.80796
227.80796
227.80796
227.80796
227.80796
227.80796
227.80796
227.80796
227.80796
227.80796
227.80796
227.80796
227.80796
227.80796
227.80796
227.80796
227.80796
227.80796
227.80796
227.80796
227.80796
227.80796
227.80796
227.80796
227.80796
227.80796
227.80796
227.80796
227.80796
227.80796
227.80796
227.80796
227.80796
227.80796
227.80796
227.80796
227.80796
227.80796
227.80796
227.80796
227.80796
227.80796
227.80796
227.80796
227.80796
227.80796
227.80796
227.80796
227.80796
227.80796
227.80796
227.80796
227.80796
227.80796
227.80796
227.80796
227.80796
227.80796
227.80796
227.80796
227.80796
227.80796
227.80796
227.80796
227.80796
227.80796
227.80796
227.80796
227.80796
227.80796
227.80796
227.80796
227.80796
227.80796
227.80796
227.80796
227.80796
227.80796
227.80796
227.80796
227.80796
227.80796
227.80796
227.80796
227.80796
227.80796
227.80796
227.80796
227.80796
227.80796
227.80796
227.80796
227.80796
227.80796
227.80796
227.80796
227.80796
227.80796
227.80796
227.80796
227.80796
227.80796
227.80796
227.80796
227.80796
227.80796
227.80796
227.80796
227.80796
227.80796
227.80796
227.80796
227.80796
227.80796
227.80796
227.80796
227.80796
227.80796
227.80796
227.80796
227.80796
227.80796
227.80796
227.80796
227.80796
227.80796
227.80796
227.80796
227.80796
227.80796
227.80796
227.80796
227.80796
227.80796
227.80796
227.80796
227.80796
227.80796
227.80796
227.80796
227.80796
227.80796
227.80796
227.80796
227.80796
227.80796
227.80796
227.80796
227.80796
227.80796
227.80796
227.80796
227.80796
227.80796
227.80796
227.80796
227.80796
227.80796
227.80796
227.80796
227.80796
227.80796
227.80796
227.80796
227.80796
227.80796
227.80796
227.80796
227.80796
227.80796
227.80796
227.80796
227.80796
227.80796
227.80796
227.80796
227.80796
227.80796
227.80796
227.80796
227.80796
227.80796
227.80796
227.80796
227.80796
227.80796
227.80796
227.80796
227.80796
227.80796
227.80796
227.80796
227.80796
227.80796
227.80796
227.80796
227.80796
227.80796
227.80796
227.80796
82.363695
0
0
0
0
295.10773
0
0
0
0
0
188.62401
0
369.07975
0
0
0
0
0
0
0
0
0
0
109.67245
35.26711
88.176876
0
24.057855
0
0
0
0
4.6165428
0
9.4832202
0
0
0
0
0
0
0
118.9663
0
217.88253
41.311604
0
0
0
0
0
0
0
0
0
0
0
0
0
0
0
0
0
0
192.64118
184.9759
237.8223
257.02073
265.53172
315.76861
258.73616
435.77312
360.46177
0
0
0
0
0
0
0
0
0
0
0
0
0
0
0
0
0
0
0
0
0
0
55.481059
0
0
0
0
0
0
0
21.123111
0
72.293157
138.10921
3.310673
162.46427
43.655277
148.69965
269.53856
249.40688
352.52542
0
0
0
0
0
0
0
0
0
0
0
0
31.239177
68.155004
43.249648
170.79158
186.74207
62.617154
83.642565
193.50022
0
0
65.014567
107.2059
207.50554
52.974597
8.9859884
118.6209
5.2851123
187.74244
87.980174
9.460515
232.74816
0
0
0
0
0
0
0
0
0
0
0
0
0
0
0
0
0
0
0
0
0
0
0
0
162.81127
197.51799
149.46091
72.901891
138.08329
275.52652
249.54912
264.7009
284.84741
331.77962
350.45447
0
0
0
0
0
0
0
0
0
0
0
0
0
0
0
0
0
0
0
0
0
0
30.095575
44.106689
77.785876
130.16999
155.72145
34.627571
24.749369
81.705779
224.47676
172.86922
209.96418
81.579206
299.39743
)


588
(
536.2201
536.2201
536.2201
34.778609
22.772002
536.2201
536.2201
30.656935
34.778609
536.2201
22.8281
40.310594
17.100194
40.310594
22.8281
536.2201
536.2201
536.2201
17.100194
246.03222
536.2201
536.2201
536.2201
536.2201
54.354495
164.76797
123.01143
398.50133
536.2201
536.2201
536.2201
536.2201
536.2201
246.03222
34.778609
536.2201
536.2201
536.2201
536.2201
536.2201
536.2201
34.778609
40.310594
156.47276
536.2201
536.2201
536.2201
54.354495
54.354495
54.354495
536.2201
536.2201
536.2201
536.2201
40.310594
536.2201
536.2201
536.2201
536.2201
536.2201
22.772002
18.846583
17.100194
536.2201
536.2201
536.2201
17.100194
48.223373
48.223373
22.8281
18.846583
18.846583
78.708859
78.708859
22.8281
536.2201
536.2201
536.2201
166.15863
284.00065
536.2201
123.01143
536.2201
123.01143
536.2201
536.2201
536.2201
536.2201
536.2201
536.2201
536.2201
536.2201
536.2201
536.2201
536.2201
536.2201
22.772002
25.865042
25.865042
536.2201
536.2201
536.2201
30.656935
30.656935
30.656935
27.805741
27.805741
27.805741
21.445684
21.445684
27.805741
536.2201
536.2201
536.2201
536.2201
536.2201
536.2201
22.772002
25.865042
25.865042
536.2201
536.2201
536.2201
48.223373
48.223373
166.15863
78.708859
78.708859
78.708859
18.846583
21.445684
21.445684
536.2201
536.2201
536.2201
536.2201
536.2201
536.2201
67.519889
20.290865
381.92334
381.92334
381.92334
381.92334
381.92334
381.92334
381.92334
27.32074
381.92334
381.92334
381.92334
381.92334
381.92334
381.92334
381.92334
381.92334
24.450667
58.236681
27.120845
19.313494
35.388617
381.92334
381.92334
381.92334
381.92334
381.92334
381.92334
381.92334
31.850807
381.92334
381.92334
381.92334
381.92334
381.92334
381.92334
381.92334
381.92334
381.92334
381.92334
381.92334
88.358138
38.700217
45.890843
381.92334
381.92334
381.92334
51.163649
381.92334
381.92334
381.92334
381.92334
381.92334
381.92334
381.92334
381.92334
381.92334
381.92334
381.92334
381.92334
381.92334
381.92334
381.92334
381.92334
381.92334
381.92334
381.92334
381.92334
381.92334
381.92334
381.92334
381.92334
381.92334
381.92334
381.92334
381.92334
381.92334
381.92334
381.92334
381.92334
381.92334
381.92334
381.92334
381.92334
381.92334
381.92334
381.92334
381.92334
381.92334
381.92334
381.92334
381.92334
381.92334
381.92334
381.92334
381.92334
381.92334
381.92334
381.92334
381.92334
381.92334
381.92334
381.92334
381.92334
381.92334
381.92334
381.92334
381.92334
381.92334
381.92334
381.92334
381.92334
381.92334
381.92334
381.92334
381.92334
381.92334
381.92334
381.92334
381.92334
381.92334
381.92334
381.92334
381.92334
381.92334
381.92334
381.92334
381.92334
381.92334
381.92334
381.92334
381.92334
381.92334
381.92334
381.92334
381.92334
381.92334
21.115199
18.373928
18.9487
381.92334
381.92334
381.92334
381.92334
381.92334
381.92334
26.821851
61.788021
66.463731
381.92334
381.92334
381.92334
58.066767
30.923153
74.293733
17.561365
22.488726
18.458562
381.92334
381.92334
381.92334
381.92334
381.92334
381.92334
381.92334
381.92334
381.92334
381.92334
381.92334
381.92334
381.92334
381.92334
381.92334
381.92334
381.92334
381.92334
381.92334
381.92334
381.92334
381.92334
381.92334
381.92334
381.92334
381.92334
381.92334
381.92334
381.92334
381.92334
381.92334
381.92334
42.332635
92.877666
21.799735
24.139488
19.664219
23.019448
26.919507
19.530999
381.92334
381.92334
381.92334
381.92334
381.92334
381.92334
381.92334
381.92334
381.92334
25.940815
74.780564
69.646706
381.92334
381.92334
381.92334
381.92334
381.92334
381.92334
381.92334
381.92334
381.92334
381.92334
381.92334
381.92334
381.92334
381.92334
381.92334
381.92334
381.92334
381.92334
381.92334
381.92334
381.92334
17.31648
0
0
0
0
161.75395
0
0
0
0
0
70.382626
0
260.58014
0
0
0
0
0
0
0
0
0
0
3.3918769
0
12.954825
0
0
0
0
0
0
24.038699
0
41.251044
0
0
0
0
0
0
0
0
0
81.74219
0
0
0
0
0
0
0
0
0
0
0
0
0
0
0
0
0
0
0
126.87631
119.72854
212.46205
230.05989
165.67351
242.06018
151.62181
358.22123
323.95861
0
0
0
0
0
0
0
0
0
0
0
0
0
0
0
0
0
0
0
0
0
0
38.117838
0
0
0
0
0
0
34.611052
42.189993
0
16.745195
120.82547
5.8446675
79.036822
16.149692
152.75939
258.08079
161.43071
330.95804
0
0
0
0
0
0
0
0
0
0
0
0
80.70281
165.75995
16.231159
172.04812
227.73732
114.09249
180.65228
232.80464
0
0
0
0
84.491196
0
0
0
0
28.26916
0
0
78.965644
0
0
0
0
0
0
0
0
0
0
0
0
0
0
0
0
0
0
0
0
0
0
0
0
79.061485
131.28116
66.394653
17.246805
121.11331
268.91335
223.1432
258.15579
212.41289
260.17307
316.25188
0
0
0
0
0
0
0
0
0
0
0
0
0
0
0
0
0
0
0
0
0
0
59.806136
13.495621
21.736925
113.71196
153.55746
27.410715
31.392553
133.71801
308.36181
219.4798
294.59561
176.2808
329.15097
)


588
(
411.8157
411.8157
411.8157
12.153148
22.953312
411.8157
411.8157
24.448934
12.153148
411.8157
71.075808
68.246225
23.129303
411.8157
71.075808
411.8157
411.8157
411.8157
23.129303
193.06745
48.681765
411.8157
411.8157
411.8157
18.976476
19.982167
17.74233
36.920167
411.8157
411.8157
411.8157
411.8157
411.8157
193.06745
12.153148
49.100805
18.976476
19.982167
19.982167
36.920167
411.8157
12.153148
68.246225
49.100805
411.8157
411.8157
411.8157
18.976476
18.976476
18.976476
295.89005
36.920167
36.920167
411.8157
411.8157
49.100805
49.100805
411.8157
411.8157
411.8157
22.953312
24.902451
23.129303
411.8157
411.8157
411.8157
23.129303
30.401895
30.401895
71.075808
24.902451
24.902451
411.8157
411.8157
71.075808
411.8157
411.8157
411.8157
48.681765
150.98516
150.98516
17.74233
17.74233
17.74233
411.8157
411.8157
411.8157
36.920167
36.920167
19.982167
411.8157
411.8157
411.8157
411.8157
411.8157
411.8157
22.953312
23.448165
23.448165
411.8157
411.8157
411.8157
24.448934
24.448934
24.448934
103.07013
103.07013
103.07013
31.739286
31.739286
103.07013
411.8157
411.8157
411.8157
48.681765
112.26316
112.26316
22.953312
23.448165
23.448165
411.8157
411.8157
411.8157
30.401895
30.401895
48.681765
411.8157
411.8157
411.8157
24.902451
31.739286
31.739286
411.8157
411.8157
411.8157
48.681765
48.681765
48.681765
22.772964
26.210664
471.50949
471.50949
471.50949
471.50949
28.784612
471.50949
471.50949
26.875493
471.50949
471.50949
471.50949
471.50949
35.916023
471.50949
471.50949
471.50949
109.72756
140.42331
24.506947
37.893255
41.027047
471.50949
471.50949
471.50949
471.50949
471.50949
471.50949
471.50949
26.405572
77.773195
70.114473
471.50949
471.50949
471.50949
471.50949
471.50949
471.50949
471.50949
33.37442
471.50949
40.47609
20.472682
33.204657
471.50949
471.50949
70.566846
27.754643
56.790419
471.50949
471.50949
471.50949
471.50949
471.50949
471.50949
471.50949
471.50949
471.50949
471.50949
471.50949
471.50949
471.50949
471.50949
471.50949
471.50949
471.50949
89.257007
80.825744
471.50949
471.50949
471.50949
471.50949
471.50949
471.50949
471.50949
471.50949
471.50949
471.50949
471.50949
471.50949
471.50949
471.50949
471.50949
471.50949
471.50949
471.50949
471.50949
471.50949
471.50949
471.50949
471.50949
471.50949
471.50949
471.50949
471.50949
471.50949
471.50949
471.50949
471.50949
471.50949
471.50949
471.50949
57.357025
71.778273
471.50949
471.50949
471.50949
471.50949
471.50949
471.50949
471.50949
471.50949
471.50949
471.50949
471.50949
471.50949
471.50949
471.50949
471.50949
471.50949
471.50949
471.50949
471.50949
471.50949
471.50949
471.50949
471.50949
471.50949
471.50949
471.50949
471.50949
471.50949
471.50949
471.50949
471.50949
471.50949
471.50949
26.360928
27.723847
27.358368
471.50949
471.50949
471.50949
471.50949
471.50949
471.50949
27.015999
29.751788
29.384782
471.50949
471.50949
471.50949
471.50949
119.19965
471.50949
31.224087
37.528211
30.85364
471.50949
471.50949
471.50949
471.50949
471.50949
471.50949
471.50949
471.50949
471.50949
37.60708
70.604221
36.395234
471.50949
471.50949
471.50949
471.50949
471.50949
471.50949
471.50949
471.50949
471.50949
471.50949
471.50949
471.50949
471.50949
471.50949
471.50949
471.50949
471.50949
471.50949
471.50949
471.50949
130.10263
471.50949
26.44251
24.386264
26.916706
29.012914
37.172414
30.489389
471.50949
471.50949
471.50949
471.50949
471.50949
471.50949
471.50949
471.50949
471.50949
27.14634
30.366464
29.097636
39.776729
63.910319
35.278374
471.50949
471.50949
471.50949
471.50949
471.50949
471.50949
471.50949
471.50949
471.50949
471.50949
471.50949
471.50949
471.50949
471.50949
471.50949
471.50949
471.50949
471.50949
0
0
0
0
0
0
0
0
0
0
0
29.76432
0
111.06559
0
0
0
0
0
0
0
0
0
0
0
0
0
0
0
0
0
0
0
40.642407
0
46.084868
0
0
0
0
0
0
0
0
0
0
0
0
0
0
0
0
0
0
0
0
0
0
0
0
0
0
0
0
0
34.405615
28.767618
145.52308
159.09999
36.615972
125.98468
18.072045
223.02898
230.8842
0
0
0
0
0
0
0
0
0
0
0
0
0
0
0
0
0
0
0
0
0
0
17.816586
0
0
0
0
0
73.113618
134.44778
0
0
0
74.79823
0
0
0
122.48812
197.81831
43.663822
250.91167
0
0
0
0
0
0
0
0
0
0
0
0
105.20804
225.62399
0
136.27893
222.35572
135.6152
237.72014
225.04135
0
0
0
0
25.924167
0
0
0
0
0
0
0
0
0
0
0
0
0
0
0
0
0
0
0
0
0
0
0
0
0
0
0
0
0
0
0
0
0
37.739558
0
24.723562
75.34278
211.72315
153.69193
202.55682
101.63558
143.5088
226.38927
0
0
0
0
0
0
0
0
0
0
0
0
0
0
0
0
0
0
0
0
0
55.682688
0
0
23.006964
69.511577
117.19752
0
21.523405
152.86689
333.76087
220.784
322.70237
231.6606
298.37679
)


588
(
0
0
284.42858
6.4772211
3.5781134
0
284.42858
2.5504461
6.4772211
284.42858
284.42858
247.40273
2.5863116
284.42858
284.42858
29.836226
10.346945
284.42858
2.5863116
10.346945
3.464256
284.42858
284.42858
284.42858
0
0
0
0
0
284.42858
284.42858
284.42858
0
10.346945
6.4772211
0
0
0
0
0
0
6.4772211
247.40273
0
0
0
0
0
0
0
0
0
0
0
284.42858
0
0
284.42858
10.346945
0
3.5781134
6.7521183
2.5863116
284.42858
284.42858
284.42858
2.5863116
2.6224647
2.6224647
284.42858
6.7521183
6.7521183
284.42858
284.42858
284.42858
7.1359164
284.42858
284.42858
3.464256
7.1359164
7.1359164
0
0
0
0
0
0
0
0
0
284.42858
284.42858
284.42858
284.42858
284.42858
284.42858
3.5781134
3.4815527
3.4815527
284.42858
284.42858
284.42858
2.5504461
2.5504461
2.5504461
284.42858
284.42858
284.42858
284.42858
284.42858
284.42858
29.836226
6.5214926
6.5214926
3.464256
6.5214926
6.5214926
3.5781134
3.4815527
3.4815527
284.42858
284.42858
284.42858
2.6224647
2.6224647
3.464256
284.42858
284.42858
284.42858
6.7521183
58.570589
58.570589
284.42858
284.42858
284.42858
3.464256
3.464256
3.464256
31.826967
4.9871388
524.72754
524.72754
524.72754
524.72754
25.929703
524.72754
524.72754
4.6742441
524.72754
524.72754
524.72754
524.72754
30.493625
524.72754
524.72754
100.38048
524.72754
524.72754
7.7749649
524.72754
278.61099
524.72754
524.72754
524.72754
524.72754
524.72754
17.371252
23.673428
6.8328526
8.5069685
13.265866
524.72754
524.72754
524.72754
524.72754
524.72754
524.72754
524.72754
35.626561
135.86496
145.04232
22.866283
124.21244
524.72754
524.72754
35.783541
15.767776
23.060386
524.72754
524.72754
524.72754
524.72754
524.72754
524.72754
524.72754
524.72754
524.72754
524.72754
524.72754
524.72754
524.72754
524.72754
524.72754
524.72754
524.72754
40.634284
32.703727
44.551269
524.72754
524.72754
524.72754
60.783383
524.72754
89.885034
150.08216
52.034484
69.774133
524.72754
524.72754
524.72754
524.72754
524.72754
524.72754
524.72754
524.72754
524.72754
524.72754
524.72754
524.72754
524.72754
524.72754
524.72754
524.72754
524.72754
524.72754
524.72754
524.72754
524.72754
524.72754
524.72754
524.72754
166.86172
41.449485
190.65434
524.72754
58.927504
524.72754
524.72754
524.72754
524.72754
524.72754
524.72754
524.72754
524.72754
524.72754
524.72754
524.72754
524.72754
524.72754
524.72754
524.72754
524.72754
524.72754
524.72754
524.72754
524.72754
524.72754
524.72754
524.72754
524.72754
524.72754
524.72754
58.008598
524.72754
36.663553
524.72754
5.2363383
7.6340084
8.3637404
524.72754
524.72754
524.72754
524.72754
524.72754
524.72754
4.7649548
4.8165666
4.8846545
524.72754
524.72754
524.72754
524.72754
524.72754
524.72754
32.325557
524.72754
33.620125
524.72754
524.72754
524.72754
524.72754
18.783917
524.72754
524.72754
524.72754
524.72754
5.4761475
9.3059441
5.8979613
524.72754
524.72754
524.72754
524.72754
524.72754
524.72754
524.72754
524.72754
524.72754
524.72754
524.72754
524.72754
524.72754
524.72754
524.72754
524.72754
524.72754
524.72754
524.72754
524.72754
524.72754
524.72754
5.495507
13.1411
9.1681264
40.975939
524.72754
35.075604
524.72754
20.332135
524.72754
524.72754
56.919799
524.72754
524.72754
52.757395
524.72754
4.8559694
6.9064216
4.967013
8.8230053
10.247966
6.3911821
524.72754
524.72754
524.72754
524.72754
524.72754
524.72754
524.72754
524.72754
524.72754
524.72754
524.72754
69.641089
524.72754
79.332624
524.72754
524.72754
524.72754
524.72754
0
0
0
0
0
0
0
0
0
0
0
0
0
0
0
0
0
0
0
0
0
0
0
0
0
0
0
0
0
0
0
0
0
4.225096
0
3.6942052
0
0
0
0
0
0
0
0
0
0
0
0
0
0
0
0
0
0
0
0
0
0
0
0
0
0
0
0
0
0
0
68.829194
78.312508
0
8.741989
0
85.837902
127.99765
0
0
0
0
0
0
0
0
0
0
0
0
0
0
0
0
0
0
12.729015
0
8.5821842
0
0.74296279
0
11.244744
7.1061988
2.0770816
0.72944516
5.4914306
7.9683475
0
0
0
19.610824
0
0
0
78.728625
124.4402
0
158.19035
0
0
0
0
0
0
0
0
0
0
0
0
11.055652
9.8873403
0
87.050033
195.93634
13.677311
10.232963
196.38943
0
0
0
0
0
0
0
0
0
0
0
0
0
0
0
0
0
0
0
0
0
0
0
0
0
0
0
0
0
0
0
0
0
0
0
0
0
0
31.986217
0
0
20.351531
140.36758
74.453487
132.99346
5.702653
24.942282
126.41472
0
0
0
0
0
0
0
0
0
0
0
0
0
0
0
0
0
0
9.906813
0
4.7266919
3.8819596
0
0
0
16.174233
68.364708
0
0.68652495
15.105037
330.23932
200.37961
32.112903
9.9511838
246.25839
)

)


// ************************************************************************* //
