/*--------------------------------*- C++ -*----------------------------------*\
  =========                 |
  \\      /  F ield         | OpenFOAM: The Open Source CFD Toolbox
   \\    /   O peration     | Website:  https://openfoam.org
    \\  /    A nd           | Version:  8
     \\/     M anipulation  |
\*---------------------------------------------------------------------------*/
/*   Windows 32 and 64 bit porting by blueCAPE: http://www.bluecape.com.pt   *\
|  Based on Windows porting (2.0.x v4) by Symscape: http://www.symscape.com   |
\*---------------------------------------------------------------------------*/
FoamFile
{
    version     2.0;
    format      ascii;
    class       scalarListList;
    location    "constant/vegetation";
    object      sunViewCoeff;
}
// * * * * * * * * * * * * * * * * * * * * * * * * * * * * * * * * * * * * * //


5
(

284
(
717.08284
30.378927
717.08284
717.08284
717.08284
717.08284
717.08284
717.08284
400.55875
717.08284
717.08284
717.08284
717.08284
717.08284
442.85753
21.058565
36.741249
655.66113
717.08284
22.798571
717.08284
717.08284
717.08284
717.08284
717.08284
717.08284
717.08284
717.08284
717.08284
717.08284
80.639504
80.639504
80.639504
80.639504
80.639504
80.639504
80.639504
80.639504
80.639504
80.639504
80.639504
80.639504
80.639504
80.639504
80.639504
80.639504
80.639504
80.639504
80.639504
80.639504
80.639504
80.639504
80.639504
80.639504
80.639504
80.639504
80.639504
80.639504
80.639504
80.639504
80.639504
80.639504
80.639504
80.639504
80.639504
80.639504
80.639504
80.639504
80.639504
80.639504
80.639504
80.639504
80.639504
80.639504
80.639504
80.639504
80.639504
80.639504
80.639504
80.639504
80.639504
80.639504
80.639504
80.639504
80.639504
80.639504
80.639504
80.639504
80.639504
80.639504
80.639504
80.639504
80.639504
80.639504
80.639504
80.639504
80.639504
80.639504
80.639504
80.639504
80.639504
80.639504
80.639504
80.639504
80.639504
80.639504
80.639504
80.639504
80.639504
80.639504
80.639504
80.639504
80.639504
80.639504
80.639504
80.639504
80.639504
80.639504
80.639504
80.639504
80.639504
80.639504
80.639504
80.639504
80.639504
80.639504
80.639504
80.639504
80.639504
80.639504
80.639504
80.639504
80.639504
80.639504
80.639504
80.639504
80.639504
80.639504
80.639504
80.639504
80.639504
80.639504
80.639504
80.639504
80.639504
80.639504
80.639504
80.639504
80.639504
80.639504
80.639504
80.639504
80.639504
80.639504
80.639504
80.639504
80.639504
80.639504
80.639504
80.639504
80.639504
80.639504
80.639504
80.639504
80.639504
80.639504
80.639504
80.639504
80.639504
80.639504
80.639504
80.639504
80.639504
80.639504
80.639504
80.639504
80.639504
80.639504
80.639504
80.639504
80.639504
80.639504
80.639504
80.639504
80.639504
80.639504
80.639504
80.639504
80.639504
80.639504
80.639504
80.639504
80.639504
80.639504
80.639504
80.639504
80.639504
80.639504
80.639504
80.639504
80.639504
80.639504
80.639504
80.639504
80.639504
80.639504
80.639504
80.639504
80.639504
80.639504
80.639504
80.639504
80.639504
80.639504
80.639504
80.639504
80.639504
80.639504
80.639504
80.639504
80.639504
80.639504
80.639504
80.639504
80.639504
80.639504
80.639504
80.639504
80.639504
80.639504
80.639504
80.639504
80.639504
80.639504
80.639504
80.639504
80.639504
80.639504
80.639504
80.639504
80.639504
80.639504
80.639504
80.639504
80.639504
80.639504
80.639504
80.639504
80.639504
80.639504
80.639504
80.639504
80.639504
80.639504
80.639504
80.639504
80.639504
80.639504
80.639504
80.639504
80.639504
80.639504
216.66207
1.8431978
0
0
6.4562636
340.61631
9.708172
0
0
426.82808
0
0
0
163.67171
0
36.827138
0
0
236.91177
313.6221
0
56.287845
)


284
(
585.76158
15.82833
164.32164
585.76158
585.76158
585.76158
585.76158
46.648317
22.838195
47.674404
585.76158
585.76158
585.76158
585.76158
581.61492
108.01347
43.429731
574.04944
585.76158
143.83707
585.76158
43.488075
585.76158
585.76158
302.0062
585.76158
585.76158
446.00656
311.01009
585.76158
227.80796
227.80796
227.80796
227.80796
227.80796
227.80796
227.80796
227.80796
227.80796
227.80796
227.80796
227.80796
227.80796
227.80796
227.80796
227.80796
227.80796
227.80796
227.80796
227.80796
227.80796
227.80796
227.80796
227.80796
227.80796
227.80796
227.80796
227.80796
227.80796
227.80796
227.80796
227.80796
227.80796
227.80796
227.80796
227.80796
227.80796
227.80796
227.80796
227.80796
227.80796
227.80796
227.80796
227.80796
227.80796
227.80796
227.80796
227.80796
227.80796
227.80796
227.80796
227.80796
227.80796
227.80796
227.80796
227.80796
227.80796
227.80796
227.80796
227.80796
227.80796
227.80796
227.80796
227.80796
227.80796
227.80796
227.80796
227.80796
227.80796
227.80796
227.80796
227.80796
227.80796
227.80796
227.80796
227.80796
227.80796
227.80796
227.80796
227.80796
227.80796
227.80796
227.80796
227.80796
227.80796
227.80796
227.80796
227.80796
227.80796
227.80796
227.80796
227.80796
227.80796
227.80796
227.80796
227.80796
227.80796
227.80796
227.80796
227.80796
227.80796
227.80796
227.80796
227.80796
227.80796
227.80796
227.80796
227.80796
227.80796
227.80796
227.80796
227.80796
227.80796
227.80796
227.80796
227.80796
227.80796
227.80796
227.80796
227.80796
227.80796
227.80796
227.80796
227.80796
227.80796
227.80796
227.80796
227.80796
227.80796
227.80796
227.80796
227.80796
227.80796
227.80796
227.80796
227.80796
227.80796
227.80796
227.80796
227.80796
227.80796
227.80796
227.80796
227.80796
227.80796
227.80796
227.80796
227.80796
227.80796
227.80796
227.80796
227.80796
227.80796
227.80796
227.80796
227.80796
227.80796
227.80796
227.80796
227.80796
227.80796
227.80796
227.80796
227.80796
227.80796
227.80796
227.80796
227.80796
227.80796
227.80796
227.80796
227.80796
227.80796
227.80796
227.80796
227.80796
227.80796
227.80796
227.80796
227.80796
227.80796
227.80796
227.80796
227.80796
227.80796
227.80796
227.80796
227.80796
227.80796
227.80796
227.80796
227.80796
227.80796
227.80796
227.80796
227.80796
227.80796
227.80796
227.80796
227.80796
227.80796
227.80796
227.80796
227.80796
227.80796
227.80796
227.80796
227.80796
227.80796
227.80796
227.80796
227.80796
227.80796
227.80796
227.80796
227.80796
227.80796
227.80796
227.80796
227.80796
227.80796
227.80796
227.80796
227.80796
227.80796
227.80796
227.80796
227.80796
227.80796
227.80796
227.80796
227.80796
103.6844
0
0
0
0
122.52694
0
0
0
288.35081
0
0
0
5.4096174
0
84.436868
0
0
180.43559
271.4651
33.369488
35.333176
)


284
(
536.2201
34.778609
22.772002
536.2201
536.2201
30.656935
536.2201
22.8281
40.310594
17.100194
536.2201
391.60261
536.2201
418.74389
150.48534
389.74596
226.55143
506.42692
536.2201
461.5317
536.2201
18.846583
536.2201
48.223373
78.708859
473.86533
25.865042
27.805741
21.445684
536.2201
67.519889
20.290865
381.92334
381.92334
381.92334
381.92334
381.92334
381.92334
381.92334
27.32074
381.92334
381.92334
381.92334
381.92334
381.92334
381.92334
381.92334
381.92334
24.450667
58.236681
27.120845
19.313494
35.388617
381.92334
381.92334
381.92334
381.92334
381.92334
381.92334
381.92334
31.850807
381.92334
381.92334
381.92334
381.92334
381.92334
381.92334
381.92334
381.92334
381.92334
381.92334
381.92334
88.358138
38.700217
45.890843
381.92334
381.92334
381.92334
51.163649
381.92334
381.92334
381.92334
381.92334
381.92334
381.92334
381.92334
381.92334
381.92334
381.92334
381.92334
381.92334
381.92334
381.92334
381.92334
381.92334
381.92334
381.92334
381.92334
381.92334
381.92334
381.92334
381.92334
381.92334
381.92334
381.92334
381.92334
381.92334
381.92334
381.92334
381.92334
381.92334
381.92334
381.92334
381.92334
381.92334
381.92334
381.92334
381.92334
381.92334
381.92334
381.92334
381.92334
381.92334
381.92334
381.92334
381.92334
381.92334
381.92334
381.92334
381.92334
381.92334
381.92334
381.92334
381.92334
381.92334
381.92334
381.92334
381.92334
381.92334
381.92334
381.92334
381.92334
381.92334
381.92334
381.92334
381.92334
381.92334
381.92334
381.92334
381.92334
381.92334
381.92334
381.92334
381.92334
381.92334
381.92334
381.92334
381.92334
381.92334
381.92334
381.92334
381.92334
381.92334
381.92334
381.92334
381.92334
381.92334
381.92334
21.115199
18.373928
18.9487
381.92334
381.92334
381.92334
381.92334
381.92334
381.92334
26.821851
61.788021
66.463731
381.92334
381.92334
381.92334
58.066767
30.923153
74.293733
17.561365
22.488726
18.458562
381.92334
381.92334
381.92334
381.92334
381.92334
381.92334
381.92334
381.92334
381.92334
381.92334
381.92334
381.92334
381.92334
381.92334
381.92334
381.92334
381.92334
381.92334
381.92334
381.92334
381.92334
381.92334
381.92334
381.92334
381.92334
381.92334
381.92334
381.92334
381.92334
381.92334
381.92334
381.92334
42.332635
92.877666
21.799735
24.139488
19.664219
23.019448
26.919507
19.530999
381.92334
381.92334
381.92334
381.92334
381.92334
381.92334
381.92334
381.92334
381.92334
25.940815
74.780564
69.646706
381.92334
381.92334
381.92334
381.92334
381.92334
381.92334
381.92334
381.92334
381.92334
381.92334
381.92334
381.92334
381.92334
381.92334
381.92334
381.92334
381.92334
381.92334
381.92334
381.92334
381.92334
2.8982444
0
0
0
0
11.657582
0
0
0
187.85395
0
0
0
0
0
135.99253
0
0
138.20684
252.1631
25.206235
7.6475589
)


284
(
411.8157
12.153148
22.953312
411.8157
411.8157
24.448934
411.8157
71.075808
240.77266
23.129303
411.8157
302.80073
411.8157
48.681765
18.976476
19.982167
17.74233
36.920167
411.8157
121.75712
383.12959
24.902451
411.8157
30.401895
411.8157
282.59586
23.448165
103.07013
31.739286
261.20558
22.772964
26.210664
471.50949
471.50949
471.50949
471.50949
28.784612
471.50949
471.50949
26.875493
471.50949
471.50949
471.50949
471.50949
35.916023
471.50949
471.50949
471.50949
109.72756
140.42331
24.506947
37.893255
41.027047
471.50949
471.50949
471.50949
471.50949
471.50949
471.50949
471.50949
26.405572
77.773195
70.114473
471.50949
471.50949
471.50949
471.50949
471.50949
471.50949
471.50949
33.37442
471.50949
40.47609
20.472682
33.204657
471.50949
471.50949
70.566846
27.754643
56.790419
471.50949
471.50949
471.50949
471.50949
471.50949
471.50949
471.50949
471.50949
471.50949
471.50949
471.50949
471.50949
471.50949
471.50949
471.50949
471.50949
471.50949
89.257007
80.825744
471.50949
471.50949
471.50949
471.50949
471.50949
471.50949
471.50949
471.50949
471.50949
471.50949
471.50949
471.50949
471.50949
471.50949
471.50949
471.50949
471.50949
471.50949
471.50949
471.50949
471.50949
471.50949
471.50949
471.50949
471.50949
471.50949
471.50949
471.50949
471.50949
471.50949
471.50949
471.50949
471.50949
471.50949
57.357025
71.778273
471.50949
471.50949
471.50949
471.50949
471.50949
471.50949
471.50949
471.50949
471.50949
471.50949
471.50949
471.50949
471.50949
471.50949
471.50949
471.50949
471.50949
471.50949
471.50949
471.50949
471.50949
471.50949
471.50949
471.50949
471.50949
471.50949
471.50949
471.50949
471.50949
471.50949
471.50949
471.50949
471.50949
26.360928
27.723847
27.358368
471.50949
471.50949
471.50949
471.50949
471.50949
471.50949
27.015999
29.751788
29.384782
471.50949
471.50949
471.50949
471.50949
119.19965
471.50949
31.224087
37.528211
30.85364
471.50949
471.50949
471.50949
471.50949
471.50949
471.50949
471.50949
471.50949
471.50949
37.60708
70.604221
36.395234
471.50949
471.50949
471.50949
471.50949
471.50949
471.50949
471.50949
471.50949
471.50949
471.50949
471.50949
471.50949
471.50949
471.50949
471.50949
471.50949
471.50949
471.50949
471.50949
471.50949
130.10263
471.50949
26.44251
24.386264
26.916706
29.012914
37.172414
30.489389
471.50949
471.50949
471.50949
471.50949
471.50949
471.50949
471.50949
471.50949
471.50949
27.14634
30.366464
29.097636
39.776729
63.910319
35.278374
471.50949
471.50949
471.50949
471.50949
471.50949
471.50949
471.50949
471.50949
471.50949
471.50949
471.50949
471.50949
471.50949
471.50949
471.50949
471.50949
471.50949
471.50949
0
0
0
0
0
0
0
0
0
47.555977
0
0
0
0
0
145.11654
0
0
57.854974
185.05957
6.2571701
10.586008
)


284
(
222.15839
6.4772211
3.5781134
214.40399
284.42858
2.5504461
284.42858
284.42858
265.99558
2.5863116
190.59447
10.346945
284.42858
3.464256
0
0
0
0
0
0
0
6.7521183
284.42858
2.6224647
284.42858
77.558614
3.4815527
284.42858
181.7648
6.5214926
31.826967
4.9871388
524.72754
524.72754
524.72754
524.72754
25.929703
524.72754
524.72754
4.6742441
524.72754
524.72754
524.72754
524.72754
30.493625
524.72754
524.72754
100.38048
524.72754
524.72754
7.7749649
524.72754
278.61099
524.72754
524.72754
524.72754
524.72754
524.72754
17.371252
23.673428
6.8328526
8.5069685
13.265866
524.72754
524.72754
524.72754
524.72754
524.72754
524.72754
524.72754
35.626561
135.86496
145.04232
22.866283
124.21244
524.72754
524.72754
35.783541
15.767776
23.060386
524.72754
524.72754
524.72754
524.72754
524.72754
524.72754
524.72754
524.72754
524.72754
524.72754
524.72754
524.72754
524.72754
524.72754
524.72754
524.72754
524.72754
40.634284
32.703727
44.551269
524.72754
524.72754
524.72754
60.783383
524.72754
89.885034
150.08216
52.034484
69.774133
524.72754
524.72754
524.72754
524.72754
524.72754
524.72754
524.72754
524.72754
524.72754
524.72754
524.72754
524.72754
524.72754
524.72754
524.72754
524.72754
524.72754
524.72754
524.72754
524.72754
524.72754
524.72754
524.72754
524.72754
166.86172
41.449485
190.65434
524.72754
58.927504
524.72754
524.72754
524.72754
524.72754
524.72754
524.72754
524.72754
524.72754
524.72754
524.72754
524.72754
524.72754
524.72754
524.72754
524.72754
524.72754
524.72754
524.72754
524.72754
524.72754
524.72754
524.72754
524.72754
524.72754
524.72754
524.72754
58.008598
524.72754
36.663553
524.72754
5.2363383
7.6340084
8.3637404
524.72754
524.72754
524.72754
524.72754
524.72754
524.72754
4.7649548
4.8165666
4.8846545
524.72754
524.72754
524.72754
524.72754
524.72754
524.72754
32.325557
524.72754
33.620125
524.72754
524.72754
524.72754
524.72754
18.783917
524.72754
524.72754
524.72754
524.72754
5.4761475
9.3059441
5.8979613
524.72754
524.72754
524.72754
524.72754
524.72754
524.72754
524.72754
524.72754
524.72754
524.72754
524.72754
524.72754
524.72754
524.72754
524.72754
524.72754
524.72754
524.72754
524.72754
524.72754
524.72754
524.72754
5.495507
13.1411
9.1681264
40.975939
524.72754
35.075604
524.72754
20.332135
524.72754
524.72754
56.919799
524.72754
524.72754
52.757395
524.72754
4.8559694
6.9064216
4.967013
8.8230053
10.247966
6.3911821
524.72754
524.72754
524.72754
524.72754
524.72754
524.72754
524.72754
524.72754
524.72754
524.72754
524.72754
69.641089
524.72754
79.332624
524.72754
524.72754
524.72754
524.72754
0
0
0
0
0
0
0
0
0
20.461588
0
0
0
0
0
68.492885
0
0
6.0960029
98.334821
1.3131052
25.34386
)

)


// ************************************************************************* //
