/*--------------------------------*- C++ -*----------------------------------*\
  =========                 |
  \\      /  F ield         | OpenFOAM: The Open Source CFD Toolbox
   \\    /   O peration     | Website:  https://openfoam.org
    \\  /    A nd           | Version:  8
     \\/     M anipulation  |
\*---------------------------------------------------------------------------*/
/*   Windows 32 and 64 bit porting by blueCAPE: http://www.bluecape.com.pt   *\
|  Based on Windows porting (2.0.x v4) by Symscape: http://www.symscape.com   |
\*---------------------------------------------------------------------------*/
FoamFile
{
    version     2.0;
    format      ascii;
    class       labelListList;
    location    "constant/vegetation";
    object      globalFaceFaces;
}
// * * * * * * * * * * * * * * * * * * * * * * * * * * * * * * * * * * * * * //


544
(

1745
(
5131
5132
5133
5134
5135
5136
5137
5138
5139
5140
5141
5142
5143
5144
5145
5146
5147
5148
5149
5150
5151
5152
5153
5154
5172
5193
5208
5209
5218
5219
5230
5231
5232
5233
5234
5235
5238
5239
5241
5242
5243
5257
5258
5260
5267
5268
5269
5270
5271
5272
5273
5274
5275
5311
5312
5313
5314
5315
5319
5320
5322
5323
5324
5361
5362
5363
5371
5372
5373
5374
5375
5376
5377
5378
5379
5380
5381
5382
5425
5429
5436
5437
5438
5439
5477
5478
5479
5480
5481
5482
5483
5508
5509
5514
5515
5516
5612
5621
5681
5687
5688
5692
5698
5699
5881
5882
5895
5896
5940
5943
5944
5962
6039
6040
6041
6042
6043
6044
6045
6046
6053
6054
6055
6056
6057
6058
6059
6060
6061
6062
6063
6064
6065
6066
6067
6068
6069
6070
6071
6072
6073
6074
6075
6076
6077
6078
6079
6080
6081
6082
6083
6084
6085
6086
6087
6088
6089
6092
6097
6098
6099
6100
6101
6102
6103
6104
6105
6106
6107
6108
6109
6110
6111
6112
6113
6114
6115
6116
6117
6118
6119
6120
6121
6122
6123
6124
6125
6126
6127
6128
6129
6130
6131
6132
6133
6134
6135
6136
6137
6138
6139
6140
6141
6142
6143
6144
6145
6146
6147
6148
6149
6150
6151
6152
6153
6154
6155
6156
6157
6158
6159
6160
6161
6162
6163
6164
6165
6166
6167
6168
6169
6170
6171
6172
6173
6174
6175
6179
6180
6182
6185
6186
6201
7300
7303
7304
7305
7306
7307
7308
7309
7310
7311
7312
7313
7314
7315
7316
7317
7318
7319
7320
7321
7322
7323
7324
7325
7326
7327
7328
7329
7330
7331
7332
7333
7334
7335
7336
7337
7338
7339
7340
7341
7342
7343
7344
7345
7346
7347
7348
7349
7350
7351
7352
7353
7354
7355
7356
7357
7358
7359
7360
7361
7362
7363
7364
7365
7366
7367
7368
7369
7370
7371
7372
7373
7374
7375
7376
7377
7378
7379
7380
7390
7391
7402
7403
7404
7405
7406
7407
7408
7409
7410
7411
7412
7413
7414
7415
7438
7439
7441
7446
7460
7462
7463
7465
7466
7467
7468
7469
7470
7471
7472
7473
7474
7475
7477
7478
7479
7481
7483
7484
7506
7507
7553
7554
7557
7558
7563
7564
7565
7566
7567
7568
7569
7570
7571
7572
7573
7574
7575
7600
7601
7602
7607
7608
7609
7610
7657
7658
7659
7660
7661
7662
7663
7664
7665
7666
7667
7668
7669
7670
7671
7672
7673
7674
7675
7676
7677
7678
7679
7680
7682
7684
7695
7696
7730
7732
7747
7751
7752
7753
7776
7777
7778
7779
7780
7781
7782
7783
7784
7785
7786
7794
7795
7800
7801
7855
7857
7858
7859
7860
7861
7862
7863
7864
7865
7866
7868
7869
7871
7872
7873
7874
7875
7876
7877
7878
7879
7880
7881
7882
7883
7884
7885
7886
7887
7888
7889
7890
7891
7892
7893
7898
7899
7901
7902
7903
7904
7905
7906
7907
7908
7909
7910
7911
7912
7913
7914
7915
7916
7919
7920
7921
7922
7923
7924
7925
7926
7927
7928
7929
7930
7931
7932
7933
7934
7935
7936
7937
7939
7942
7943
7945
7948
7949
7951
7953
7956
7957
7960
7961
7963
7965
7967
7969
7972
7973
7974
7975
7976
7977
7978
7979
7980
7981
7982
7983
7984
7985
7986
7987
7988
7989
7990
7991
7992
7993
7994
7995
7996
7997
7998
8001
8002
8003
8007
8010
8013
8016
8020
8024
8028
8032
8036
8042
8044
8045
8046
8048
8049
8050
8052
8053
8054
8056
8057
8058
8060
8061
8062
8064
8065
8067
8068
8069
8071
8072
8073
8074
8076
8077
8078
8080
8081
8082
8083
8084
8085
8086
8087
8088
8089
8103
8104
8105
8106
8107
8108
8109
8110
8111
8112
8117
8118
8119
8120
8123
8124
8125
8126
8127
8128
8129
8130
8131
8132
8133
8134
8135
8136
8137
8138
8139
8140
8141
8142
8143
8144
8145
8146
8158
8159
8160
8161
8162
8163
8164
8165
8166
8167
8168
8169
8170
8171
8172
8173
8174
8175
8176
8177
8178
8179
8180
8181
8182
8184
8187
8190
8193
8196
8199
8202
8206
8210
8211
8213
8214
8216
8217
8219
8220
8222
8223
8225
8226
8228
8229
8231
8232
8234
8235
8236
8243
8244
8245
8246
8247
8250
8251
8253
8254
8255
8256
8257
8258
8259
8260
8261
8262
8263
8269
8270
8271
8272
8273
8274
8275
8276
8277
8278
8279
8280
8288
8319
8320
8321
8386
8388
8390
8392
8441
8442
8447
8448
8449
8450
8451
8454
8455
8456
8457
8461
8465
8497
8501
8502
8503
8504
8511
8512
8513
8514
8517
8518
8519
8520
8534
8535
8536
8537
8538
8601
8602
8603
8604
8613
8614
8615
8616
8617
8618
8619
8620
8785
8786
8787
8788
8795
8796
8797
8798
8805
8806
8807
8808
8809
8810
8811
8812
8822
8823
8824
8825
8832
8833
8834
8835
8836
8837
8838
8839
8841
8843
8848
8849
8850
8851
8852
8853
8854
8855
8856
8857
8858
8859
8860
8861
8862
8863
8892
8893
8894
8949
8999
9000
9002
9003
9007
9008
9010
9011
9013
9014
9016
9017
9019
9020
9030
9031
9033
9067
9068
9069
9113
9114
9115
9116
9117
9118
9119
9120
9121
9122
9123
9124
9125
9126
9127
9128
9129
9130
9131
9132
9133
9134
9135
9136
9137
9138
9139
9140
9141
9142
9143
9144
9149
9247
9248
9249
9250
9251
9252
9253
9254
9255
9256
9257
9258
9259
9260
9261
9262
9263
9264
9266
9268
9280
9283
9284
9285
9312
9313
9314
9315
9316
9317
9318
9319
9320
9321
9322
9323
9324
9325
9326
9327
9328
9329
9330
9331
9332
9333
9334
9335
9351
9352
9360
9365
9366
9367
9371
9411
9412
9419
9420
9421
9422
9423
9424
9425
9456
9461
9463
9465
9466
9468
9525
9580
9582
9583
9601
9603
9698
9728
9914
9915
9964
9965
9970
9971
9972
9973
10048
10049
10189
10190
10191
10192
10193
10194
10195
10196
10197
10198
10199
10200
10201
10202
10203
10204
10205
10206
10207
10208
10209
10210
10211
10212
10215
10216
10217
10218
10219
10220
10221
10222
10223
10224
10225
10226
10227
10228
10229
10230
10231
10232
10233
10234
10235
10236
10237
10238
10239
10240
10241
10242
10243
10244
10245
10246
10247
10248
10249
10250
10251
10252
10253
10254
10255
10257
10258
10259
10260
10261
10262
10263
10264
10265
10266
10267
10268
10269
10270
10271
10272
10273
10274
10275
10276
10277
10278
10279
10280
10281
10282
10283
10284
10285
10286
10287
10288
10289
10290
10291
10292
10293
10294
10295
10296
10297
10298
10299
10301
10304
10305
10306
10307
10308
10309
10310
10311
10312
10313
10314
10316
10320
10322
10323
10327
10426
10427
10428
10429
10430
10431
10432
10466
10467
10468
10469
10470
10471
10472
10473
10474
10475
10476
10477
10478
10479
10480
10486
10487
10488
10489
10490
10491
10492
10493
10494
10495
10496
10497
10498
10499
10500
10506
10507
10508
10509
10510
10511
10512
10513
10514
10515
10516
10517
10518
10519
10520
10521
10522
10523
10524
10525
10526
10527
10528
10529
10538
10539
10540
10541
10542
10543
10550
10551
10552
10553
10554
10555
10556
10557
10558
10559
10560
10561
10562
10563
10564
10565
10566
10567
10568
10569
10570
10571
10572
10573
10574
10575
10576
10577
10578
10579
10580
10581
10582
10583
10584
10585
10586
10587
10588
10589
10590
10591
10592
10593
10594
10595
10596
10597
10598
10599
10600
10601
10602
10603
10604
10605
10606
10607
10608
10609
10610
10611
10612
10613
10614
10615
10616
10618
10619
10620
10621
10622
10623
10624
10625
10626
10627
10628
10629
10630
10631
10632
10633
10634
10635
10636
10637
10638
10639
10640
10641
10642
10643
10644
10645
10646
10647
10648
10650
10651
10652
10653
10654
10655
10656
10657
10658
10659
10660
10661
10662
10663
10664
10665
10666
10667
10668
10669
10670
10671
10672
10673
10674
10675
10676
10677
10684
10685
10686
10688
10689
10690
10691
10696
10697
10698
10699
10700
10701
10702
10703
10704
10705
10706
10707
10708
10709
10710
10711
10712
10713
10714
10715
10716
10717
10718
10719
10720
10721
10722
10723
10724
10725
10726
10727
10728
10729
10730
10731
10732
10733
10734
10735
10736
10737
10738
10739
10740
10741
10742
10743
10748
10750
10751
10802
10803
10808
10809
10810
10811
10812
10813
10814
10815
10816
10817
10830
10831
10832
10833
10834
10835
10836
10837
10838
10839
10840
10841
10842
10843
10844
10845
10846
10847
10848
10849
10850
10851
10852
10853
10854
10855
10856
10857
10858
10859
10860
10861
10862
10863
10864
10865
10866
10867
10874
10875
10877
10880
10883
10884
10888
10907
10917
10918
10924
10925
10930
10931
10936
10937
10938
10939
10940
10941
10942
10945
10947
10952
10953
10954
10955
10956
10958
10959
10965
10967
10972
10973
10974
10975
10976
10977
10978
10979
10980
11012
11020
11021
11031
11032
11033
11034
11035
11036
11037
11038
11040
11042
11047
11048
11049
11050
11051
11052
11053
11054
11055
11056
11057
11058
11083
11084
11085
11086
11087
11088
11089
11090
11091
11092
11093
11094
11095
11096
11097
11098
11099
11100
11101
11102
11103
11104
11105
11106
11107
11108
11109
11110
11111
11112
11113
11114
11115
11116
11117
11118
11123
11124
11125
11139
11140
11141
11142
11143
11144
11145
11146
11147
11148
11149
11150
11151
11152
11153
11154
11155
11156
11157
11158
11159
11160
11161
11162
11163
11164
11165
11166
11167
11168
11169
11170
11172
11179
11180
11181
11182
11183
11184
11185
11186
11187
11192
11193
11194
11202
11203
11204
11205
11206
11207
11208
11209
11210
11211
11219
11220
11224
11225
11226
11227
11228
11229
11230
11231
11232
11233
11234
11235
11236
11237
11238
11239
11244
11245
11246
11247
11248
11249
11250
11251
11252
11253
11254
11255
11256
11257
11258
11259
11260
11261
11262
11263
11264
11265
11266
11267
11270
11271
11272
11273
11274
11275
11276
11277
11278
11279
11280
11281
11282
11283
11284
11285
11286
11287
11288
11289
11290
11291
11306
11308
11310
11779
11958
11959
11962
11998
12001
12003
12006
12007
12019
12021
12029
12030
12033
12034
12050
12051
12052
12053
12054
12055
12056
12057
12058
12059
12060
12061
12062
12063
12064
12065
12066
12067
12068
12069
12070
12071
12072
12073
12076
12077
12083
12084
12085
12086
12087
12088
12089
12090
12091
12092
12093
12094
12095
12096
12100
12101
12102
12103
12104
12105
12106
12107
12108
12109
12110
12111
12112
12113
12114
12115
12116
12117
12118
12119
12120
12121
12122
12123
12124
12125
12126
12127
12128
12129
12130
12131
12132
12171
12172
12175
12176
12178
12179
12205
12206
12209
12210
12212
12213
12224
12225
12266
12267
12268
12269
12270
12271
12272
12273
12274
12275
12276
12277
12278
12279
12280
12281
12282
12283
12298
12299
12300
12301
12302
12303
12304
)


1571
(
5130
5131
5132
5133
5134
5135
5136
5137
5138
5139
5140
5141
5142
5143
5144
5145
5146
5147
5148
5149
5150
5151
5152
5153
5154
5172
5193
5208
5209
5218
5219
5230
5231
5232
5233
5234
5235
5236
5237
5238
5239
5240
5241
5242
5243
5249
5255
5257
5258
5259
5260
5261
5264
5265
5266
5267
5268
5269
5270
5271
5272
5273
5274
5275
5284
5292
5294
5300
5301
5303
5304
5305
5306
5307
5308
5311
5312
5313
5314
5315
5316
5317
5318
5319
5320
5321
5322
5323
5324
5338
5354
5355
5356
5357
5361
5362
5363
5369
5370
5371
5372
5373
5374
5375
5376
5377
5378
5379
5380
5381
5382
5391
5392
5402
5406
5411
5415
5425
5426
5427
5428
5429
5432
5433
5434
5435
5436
5437
5438
5439
5448
5449
5450
5459
5460
5465
5466
5467
5468
5469
5470
5477
5478
5479
5480
5481
5482
5483
5484
5508
5509
5510
5511
5512
5513
5514
5515
5516
5523
5524
5525
5536
5537
5538
5539
5540
5541
5597
5606
5612
5621
5649
5659
5674
5681
5687
5688
5692
5698
5699
5739
5770
5785
5788
5791
5794
5816
5817
5822
5823
5833
5834
5839
5842
5843
5881
5882
5895
5896
5940
5941
5942
5943
5944
5948
5949
5955
5956
5957
6040
6042
6043
6044
6054
6056
6057
6058
6059
6060
6061
6062
6063
6064
6065
6066
6067
6068
6069
6070
6071
6072
6073
6074
6075
6076
6077
6078
6079
6080
6081
6082
6083
6084
6085
6086
6097
6098
6114
6116
6118
6119
6121
6128
6134
6135
6136
6137
6138
6139
6140
6141
6142
6143
6144
6145
6146
6152
6153
6154
6155
6156
6157
6158
6159
6160
6163
6164
6165
6166
6167
6168
6169
6170
6171
6172
6173
6174
6175
6180
6182
6183
6187
7300
7301
7303
7304
7305
7306
7307
7308
7309
7310
7311
7312
7313
7314
7315
7316
7317
7318
7319
7320
7321
7322
7323
7324
7325
7326
7327
7328
7329
7330
7331
7332
7333
7334
7335
7336
7337
7338
7339
7340
7341
7342
7343
7344
7345
7346
7347
7348
7349
7350
7351
7352
7353
7354
7355
7356
7357
7358
7359
7360
7361
7362
7363
7364
7365
7366
7367
7368
7369
7370
7371
7372
7373
7374
7375
7376
7377
7378
7379
7380
7381
7382
7383
7384
7385
7386
7387
7388
7389
7390
7391
7392
7393
7394
7397
7400
7402
7403
7404
7405
7406
7407
7408
7409
7410
7411
7412
7413
7414
7415
7416
7418
7419
7420
7422
7425
7426
7428
7430
7433
7434
7436
7438
7439
7440
7441
7442
7443
7444
7445
7446
7447
7448
7449
7450
7452
7453
7454
7457
7458
7459
7460
7461
7462
7463
7464
7465
7466
7467
7468
7469
7470
7471
7472
7473
7474
7475
7476
7477
7478
7479
7480
7481
7482
7483
7484
7485
7486
7491
7492
7493
7500
7501
7502
7506
7507
7509
7510
7511
7512
7514
7518
7522
7526
7531
7535
7538
7542
7546
7550
7553
7554
7555
7556
7557
7558
7559
7560
7561
7562
7563
7564
7565
7566
7567
7568
7569
7570
7571
7572
7573
7574
7575
7576
7577
7578
7579
7580
7581
7582
7583
7584
7585
7586
7587
7588
7589
7590
7591
7592
7593
7594
7595
7596
7597
7598
7599
7600
7601
7602
7603
7604
7605
7606
7607
7608
7609
7610
7611
7612
7613
7614
7615
7616
7617
7618
7619
7620
7643
7644
7645
7646
7647
7648
7649
7650
7651
7652
7653
7654
7655
7656
7657
7658
7659
7660
7661
7662
7663
7664
7665
7666
7667
7668
7669
7670
7671
7672
7673
7674
7675
7676
7677
7678
7679
7680
7681
7682
7683
7684
7685
7686
7687
7688
7689
7690
7691
7692
7693
7694
7695
7696
7697
7699
7702
7705
7708
7711
7714
7717
7720
7723
7726
7728
7729
7730
7731
7732
7733
7734
7735
7736
7737
7738
7739
7740
7741
7742
7743
7744
7745
7746
7747
7748
7749
7750
7751
7752
7753
7754
7755
7756
7757
7758
7769
7770
7771
7772
7773
7774
7775
7776
7777
7778
7779
7780
7781
7782
7783
7784
7785
7786
7787
7788
7789
7790
7791
7792
7793
7794
7796
7798
7802
7804
7855
7856
7857
7858
7859
7860
7861
7862
7863
7864
7865
7866
7868
7869
7871
7872
7873
7874
7875
7876
7877
7878
7879
7880
7881
7882
7883
7884
7885
7886
7887
7888
7889
7890
7891
7892
7893
7898
7899
7901
7902
7903
7904
7905
7906
7907
7908
7909
7910
7911
7912
7913
7914
7915
7916
7919
7920
7921
7922
7923
7924
7925
7926
7927
7928
7929
7930
7931
7932
7933
7934
7935
7936
7937
7939
7942
7943
7945
7948
7949
7951
7953
7956
7957
7960
7961
7963
7965
7967
7969
7972
7973
7974
7975
7976
7977
7978
7979
7980
7981
7982
7983
7984
7985
7986
7987
7988
7989
7990
7991
7992
7993
7994
7995
7996
7997
7998
8001
8002
8003
8007
8010
8013
8016
8020
8024
8028
8032
8036
8042
8044
8045
8046
8048
8049
8050
8052
8053
8054
8056
8057
8058
8060
8061
8062
8064
8065
8067
8068
8069
8071
8072
8073
8074
8076
8077
8078
8080
8081
8082
8083
8084
8085
8086
8087
8088
8089
8103
8104
8105
8106
8107
8108
8109
8110
8111
8112
8117
8118
8119
8120
8123
8124
8125
8126
8127
8128
8129
8130
8131
8132
8133
8134
8135
8136
8137
8138
8139
8140
8141
8142
8143
8144
8145
8146
8158
8159
8160
8161
8162
8163
8164
8165
8166
8167
8168
8169
8170
8171
8172
8173
8174
8175
8176
8177
8178
8179
8180
8181
8182
8184
8187
8190
8193
8196
8199
8202
8206
8210
8211
8213
8214
8216
8217
8219
8220
8222
8223
8225
8226
8228
8229
8231
8232
8234
8235
8236
8243
8244
8245
8246
8247
8250
8251
8253
8254
8255
8256
8257
8258
8259
8260
8261
8262
8263
8269
8270
8271
8272
8273
8274
8275
8276
8277
8278
8279
8280
8281
8285
8288
8291
8317
8319
8321
8386
8388
8390
8392
8395
8441
8442
8451
8461
8465
8469
8512
8514
8517
8518
8519
8520
8534
8547
8548
8601
8602
8603
8604
8614
8615
8805
8806
8807
8808
8809
8810
8811
8812
8822
8823
8824
8825
8836
8837
8838
8839
8841
8843
8848
8849
8850
8851
8852
8853
8854
8855
8856
8857
8858
8859
8860
8861
8862
8863
8864
8865
8867
8868
8869
8870
8871
8872
8873
8874
8875
8876
8877
8880
8881
8882
8883
8884
8885
8886
8887
8888
8889
8890
8891
8892
8893
8894
8895
8949
8999
9000
9002
9003
9007
9008
9010
9011
9013
9014
9016
9017
9019
9020
9024
9025
9027
9028
9030
9031
9033
9034
9067
9068
9069
9117
9118
9119
9120
9122
9123
9124
9125
9126
9127
9128
9129
9130
9131
9132
9133
9134
9135
9136
9137
9138
9139
9140
9141
9142
9143
9144
9145
9146
9147
9148
9149
9150
9151
9152
9153
9154
9155
9156
9157
9158
9159
9160
9243
9247
9312
9313
9314
9315
9317
9318
9319
9320
9321
9322
9323
9324
9325
9326
9327
9328
9329
9330
9351
9352
9371
10189
10201
10202
10213
10214
10218
10219
10220
10221
10222
10223
10224
10225
10226
10227
10228
10229
10230
10231
10232
10233
10234
10235
10236
10237
10238
10239
10240
10241
10242
10243
10244
10245
10246
10247
10248
10249
10253
10254
10255
10256
10257
10262
10263
10264
10265
10266
10267
10268
10269
10270
10271
10272
10273
10274
10275
10276
10277
10278
10279
10280
10281
10282
10283
10284
10285
10286
10287
10288
10289
10290
10291
10292
10293
10294
10295
10296
10297
10298
10299
10300
10301
10302
10303
10304
10305
10306
10307
10313
10314
10315
10316
10327
10349
10354
10355
10356
10362
10364
10391
10393
10394
10395
10400
10401
10402
10403
10404
10406
10407
10408
10409
10410
10411
10412
10413
10414
10415
10416
10417
10418
10419
10420
10421
10424
10425
10432
10442
10443
10444
10445
10446
10447
10448
10449
10450
10451
10452
10453
10454
10455
10456
10457
10458
10459
10460
10461
10462
10463
10464
10465
10493
10494
10495
10496
10506
10508
10509
10510
10511
10512
10513
10514
10515
10516
10517
10518
10519
10528
10529
10538
10539
10540
10541
10542
10543
10544
10545
10546
10547
10548
10549
10561
10566
10567
10568
10569
10570
10571
10572
10573
10574
10575
10576
10577
10578
10579
10580
10581
10582
10583
10584
10585
10590
10613
10614
10615
10616
10617
10618
10619
10620
10621
10622
10654
10655
10658
10659
10660
10661
10674
10675
10676
10677
10680
10681
10682
10683
10684
10685
10686
10687
10688
10689
10690
10691
10692
10693
10694
10695
10720
10721
10722
10743
10746
10750
10808
10809
10810
10811
10812
10813
10814
10815
10816
10817
10830
10831
10832
10833
10834
10835
10836
10837
10838
10839
10840
10841
10842
10843
10844
10845
10846
10847
10848
10849
10850
10851
10852
10853
10854
10855
10856
10857
10858
10859
10860
10861
10862
10863
10864
10865
10866
10867
10874
10875
10877
10907
10924
10930
10931
10936
10937
10938
10939
10940
10941
10942
10943
10945
10946
10947
10952
10953
10954
10955
10956
10958
10959
10973
10974
10975
10976
11031
11032
11033
11034
11035
11036
11037
11038
11047
11048
11049
11050
11051
11052
11053
11083
11084
11085
11086
11087
11088
11089
11090
11091
11092
11093
11094
11095
11096
11097
11098
11099
11100
11101
11102
11103
11104
11105
11106
11107
11108
11109
11110
11111
11112
11113
11114
11115
11116
11117
11118
11123
11124
11125
11139
11141
11143
11144
11145
11146
11147
11149
11150
11224
11225
11226
11227
11228
11229
11230
11231
11232
11233
11234
11235
11236
11237
11238
11239
11256
11276
11277
11278
11279
11280
11281
11282
11283
11284
11285
11286
11288
11289
11290
11291
11310
11349
)


1769
(
5130
5131
5132
5133
5134
5135
5136
5137
5138
5139
5140
5141
5142
5143
5144
5145
5146
5147
5148
5149
5150
5151
5152
5153
5154
5172
5193
5208
5209
5218
5219
5230
5231
5232
5233
5234
5235
5236
5237
5238
5239
5240
5241
5242
5243
5249
5255
5257
5258
5259
5260
5261
5264
5265
5266
5267
5268
5269
5270
5271
5272
5273
5274
5275
5284
5292
5294
5300
5301
5303
5304
5305
5306
5307
5308
5311
5312
5313
5314
5315
5316
5317
5318
5319
5320
5321
5322
5323
5324
5338
5354
5355
5356
5357
5361
5362
5363
5369
5370
5371
5372
5373
5374
5375
5376
5377
5378
5379
5380
5381
5382
5391
5392
5402
5406
5411
5415
5425
5426
5427
5428
5429
5432
5433
5434
5435
5436
5437
5438
5439
5448
5449
5450
5459
5460
5465
5466
5467
5468
5469
5470
5477
5478
5479
5480
5481
5482
5483
5484
5508
5509
5510
5511
5512
5513
5514
5515
5516
5523
5524
5525
5536
5537
5538
5539
5540
5541
5597
5606
5612
5621
5649
5659
5674
5681
5687
5688
5692
5698
5699
5739
5770
5785
5788
5791
5794
5816
5817
5822
5823
5833
5834
5839
5842
5843
5881
5882
5895
5896
5940
5941
5942
5943
5944
5948
5949
5955
5956
5957
6039
6041
6042
6043
6044
6045
6046
6053
6054
6055
6056
6057
6058
6059
6060
6061
6062
6063
6064
6065
6066
6067
6068
6069
6070
6071
6072
6073
6074
6075
6076
6077
6078
6079
6080
6081
6082
6083
6084
6085
6086
6087
6088
6097
6098
6100
6113
6114
6115
6116
6118
6120
6122
6123
6124
6125
6126
6127
6128
6129
6130
6132
6133
6134
6135
6136
6137
6143
6144
6145
6146
6148
6149
6150
6151
6152
6153
6154
6155
6156
6157
6158
6159
6160
6161
6162
6163
6164
6165
6166
6167
6168
6169
6170
6171
6172
6173
6174
6175
6179
6182
6183
6187
6201
6202
6205
7300
7301
7303
7304
7305
7306
7307
7308
7309
7310
7311
7312
7313
7314
7315
7316
7317
7318
7319
7320
7321
7322
7323
7324
7325
7326
7327
7328
7329
7330
7331
7332
7333
7334
7335
7336
7337
7338
7339
7340
7341
7342
7343
7344
7345
7346
7347
7348
7349
7350
7351
7352
7353
7354
7355
7356
7357
7358
7359
7360
7361
7362
7363
7364
7365
7366
7367
7368
7369
7370
7371
7372
7373
7374
7375
7376
7377
7378
7379
7380
7381
7382
7383
7384
7385
7386
7387
7388
7389
7390
7391
7392
7393
7394
7397
7400
7402
7403
7404
7405
7406
7407
7408
7409
7410
7411
7412
7413
7414
7415
7416
7418
7419
7420
7422
7425
7426
7428
7430
7433
7434
7436
7438
7439
7440
7441
7442
7443
7444
7445
7446
7447
7448
7449
7450
7452
7453
7454
7457
7458
7459
7460
7461
7462
7463
7464
7465
7466
7467
7468
7469
7470
7471
7472
7473
7474
7475
7476
7477
7478
7479
7480
7481
7482
7483
7484
7485
7486
7491
7492
7493
7500
7501
7502
7506
7507
7509
7510
7511
7512
7514
7518
7522
7526
7531
7535
7538
7542
7546
7550
7553
7554
7555
7556
7557
7558
7559
7560
7561
7562
7563
7564
7565
7566
7567
7568
7569
7570
7571
7572
7573
7574
7575
7576
7577
7578
7579
7580
7581
7582
7583
7584
7585
7586
7587
7588
7589
7590
7591
7592
7593
7594
7595
7596
7597
7598
7599
7600
7601
7602
7603
7604
7605
7606
7607
7608
7609
7610
7611
7612
7613
7614
7615
7616
7617
7618
7619
7620
7643
7644
7645
7646
7647
7648
7649
7650
7651
7652
7653
7654
7655
7656
7657
7658
7659
7660
7661
7662
7663
7664
7665
7666
7667
7668
7669
7670
7671
7672
7673
7674
7675
7676
7677
7678
7679
7680
7681
7682
7683
7684
7685
7686
7687
7688
7689
7690
7691
7692
7693
7694
7695
7696
7697
7699
7702
7705
7708
7711
7714
7717
7720
7723
7726
7728
7729
7730
7731
7732
7733
7734
7735
7736
7737
7738
7739
7740
7741
7742
7743
7744
7745
7746
7747
7748
7749
7750
7751
7752
7753
7754
7755
7756
7757
7758
7769
7770
7771
7772
7773
7774
7775
7776
7777
7778
7779
7780
7781
7782
7783
7784
7785
7786
7787
7788
7789
7790
7791
7792
7793
7794
7796
7797
7804
7855
7856
7857
7858
7859
7860
7861
7862
7863
7864
7865
7866
7868
7869
7871
7872
7873
7874
7875
7876
7877
7878
7879
7880
7881
7882
7883
7884
7885
7886
7887
7888
7889
7890
7891
7892
7893
7898
7899
7901
7902
7903
7904
7905
7906
7907
7908
7909
7910
7911
7912
7913
7914
7915
7916
7919
7920
7921
7922
7923
7924
7925
7926
7927
7928
7929
7930
7931
7932
7933
7934
7935
7936
7937
7939
7942
7943
7945
7948
7949
7951
7953
7956
7957
7960
7961
7963
7965
7967
7969
7972
7973
7974
7975
7976
7977
7978
7979
7980
7981
7982
7983
7984
7985
7986
7987
7988
7989
7990
7991
7992
7993
7994
7995
7996
7997
7998
8001
8002
8003
8007
8010
8013
8016
8020
8024
8028
8032
8036
8042
8044
8045
8046
8048
8049
8050
8052
8053
8054
8056
8057
8058
8060
8061
8062
8064
8065
8067
8068
8069
8071
8072
8073
8074
8076
8077
8078
8080
8081
8082
8083
8084
8085
8086
8087
8088
8089
8103
8104
8105
8106
8107
8108
8109
8110
8111
8112
8117
8118
8119
8120
8123
8124
8125
8126
8127
8128
8129
8130
8131
8132
8133
8134
8135
8136
8137
8138
8139
8140
8141
8142
8143
8144
8145
8146
8158
8159
8160
8161
8162
8163
8164
8165
8166
8167
8168
8169
8170
8171
8172
8173
8174
8175
8176
8177
8178
8179
8180
8181
8182
8184
8187
8190
8193
8196
8199
8202
8206
8210
8211
8213
8214
8216
8217
8219
8220
8222
8223
8225
8226
8228
8229
8231
8232
8234
8235
8236
8243
8244
8245
8246
8247
8250
8251
8253
8254
8255
8256
8257
8258
8259
8260
8261
8262
8263
8269
8270
8271
8272
8273
8274
8275
8276
8277
8278
8279
8280
8285
8288
9248
9249
9250
9251
9252
9253
9254
9255
9256
9257
9258
9259
9260
9261
9262
9263
9264
9266
9268
9280
9283
9284
9285
9312
9313
9314
9315
9316
9317
9318
9319
9320
9321
9322
9323
9324
9325
9326
9327
9328
9329
9330
9331
9332
9333
9334
9335
9351
9352
9360
9365
9366
9367
9371
9419
9420
9423
9425
9525
9698
10190
10191
10192
10193
10194
10195
10197
10199
10201
10202
10204
10206
10208
10209
10210
10218
10219
10220
10221
10222
10223
10224
10225
10226
10227
10228
10229
10230
10231
10232
10233
10234
10235
10236
10237
10238
10239
10240
10241
10242
10243
10244
10245
10246
10247
10248
10249
10255
10257
10258
10261
10262
10263
10264
10265
10266
10267
10268
10269
10270
10271
10272
10273
10274
10275
10276
10277
10278
10279
10280
10281
10282
10283
10284
10285
10286
10287
10288
10289
10290
10291
10292
10293
10294
10295
10296
10297
10298
10299
10301
10302
10304
10305
10306
10307
10313
10314
10354
10428
10429
10430
10431
10466
10467
10468
10469
10470
10471
10472
10473
10474
10475
10476
10477
10478
10479
10480
10486
10487
10488
10489
10490
10491
10492
10493
10494
10495
10496
10497
10498
10499
10500
10506
10507
10508
10509
10510
10511
10512
10513
10514
10515
10516
10517
10518
10519
10520
10521
10522
10523
10524
10525
10526
10527
10528
10529
10538
10539
10540
10541
10542
10543
10550
10551
10552
10553
10554
10555
10556
10557
10558
10559
10560
10561
10562
10563
10564
10565
10566
10567
10568
10569
10570
10571
10572
10573
10574
10575
10576
10577
10578
10579
10580
10581
10582
10583
10584
10585
10586
10587
10588
10589
10590
10591
10592
10593
10594
10595
10596
10597
10598
10599
10600
10601
10602
10603
10604
10605
10606
10607
10608
10609
10610
10611
10612
10613
10614
10615
10616
10618
10619
10620
10621
10622
10623
10624
10625
10626
10627
10628
10629
10630
10631
10632
10633
10634
10635
10636
10637
10638
10639
10640
10641
10642
10643
10644
10645
10646
10647
10648
10650
10651
10652
10653
10654
10655
10656
10657
10658
10659
10660
10661
10662
10663
10664
10665
10666
10667
10668
10669
10670
10671
10672
10673
10674
10675
10676
10677
10680
10681
10683
10684
10685
10686
10687
10688
10689
10690
10691
10696
10697
10698
10699
10700
10701
10702
10703
10704
10705
10706
10707
10708
10709
10710
10711
10712
10713
10714
10715
10716
10717
10718
10719
10720
10721
10722
10723
10724
10725
10726
10727
10728
10729
10730
10731
10732
10733
10734
10735
10736
10737
10738
10739
10740
10741
10742
10743
10748
10803
10808
10809
10810
10811
10812
10813
10814
10815
10817
10830
10831
10832
10833
10834
10835
10836
10837
10838
10839
10840
10841
10842
10843
10844
10845
10846
10847
10848
10849
10850
10851
10852
10853
10854
10855
10856
10857
10858
10859
10865
10867
10874
10875
10883
10884
10888
10907
10917
10918
10924
10925
10930
10931
10936
10938
10939
10952
10972
10974
10976
10979
10980
11012
11013
11020
11021
11031
11032
11033
11034
11035
11036
11037
11038
11047
11048
11049
11050
11051
11052
11053
11054
11056
11057
11058
11083
11084
11085
11086
11087
11088
11089
11090
11091
11092
11093
11094
11095
11096
11097
11098
11099
11100
11101
11102
11103
11104
11105
11106
11107
11108
11109
11110
11111
11112
11113
11114
11115
11116
11117
11118
11139
11140
11141
11142
11143
11144
11145
11146
11147
11148
11149
11150
11151
11152
11153
11154
11155
11156
11157
11158
11159
11160
11161
11162
11163
11164
11165
11166
11167
11168
11169
11170
11172
11173
11179
11180
11181
11182
11183
11184
11185
11186
11187
11192
11193
11194
11202
11203
11204
11205
11206
11207
11208
11209
11210
11211
11218
11219
11220
11224
11225
11226
11227
11228
11229
11230
11231
11232
11233
11234
11235
11236
11237
11238
11239
11244
11245
11246
11247
11248
11249
11250
11251
11252
11253
11254
11255
11256
11257
11258
11259
11260
11261
11262
11263
11264
11265
11266
11267
11270
11272
11273
11274
11275
11276
11277
11278
11279
11280
11281
11282
11283
11284
11285
11286
11287
11288
11289
11290
11291
11306
11310
11316
11348
11349
11779
11958
11959
11962
11998
12001
12003
12006
12007
12019
12021
12029
12030
12033
12034
12050
12051
12052
12053
12054
12055
12056
12057
12058
12059
12060
12061
12062
12063
12064
12065
12066
12067
12068
12069
12070
12071
12072
12073
12076
12077
12083
12084
12085
12086
12087
12088
12089
12090
12091
12092
12093
12094
12095
12096
12100
12101
12102
12103
12104
12105
12106
12107
12108
12109
12110
12111
12112
12113
12114
12115
12116
12117
12118
12119
12120
12121
12122
12123
12124
12125
12126
12127
12128
12129
12130
12131
12132
12171
12172
12175
12176
12178
12179
12205
12206
12209
12210
12212
12213
12224
12225
12266
12267
12268
12269
12270
12271
12272
12273
12274
12275
12276
12277
12278
12279
12280
12281
12282
12283
12298
12299
12300
12301
12302
12303
12304
)


1430
(
5130
5131
5132
5133
5134
5135
5136
5137
5138
5139
5140
5141
5142
5143
5144
5145
5146
5147
5148
5149
5150
5151
5152
5153
5154
5172
5193
5208
5209
5218
5219
5230
5231
5232
5233
5234
5235
5236
5237
5238
5239
5240
5241
5242
5243
5249
5255
5257
5258
5259
5260
5261
5264
5265
5266
5267
5268
5269
5270
5271
5272
5273
5274
5275
5284
5292
5294
5300
5301
5303
5304
5305
5306
5307
5308
5311
5312
5313
5314
5315
5316
5317
5318
5319
5320
5321
5322
5323
5324
5338
5354
5355
5356
5357
5361
5362
5363
5369
5370
5371
5372
5373
5374
5375
5376
5377
5378
5379
5380
5381
5382
5391
5392
5402
5406
5411
5415
5425
5426
5427
5428
5429
5432
5433
5434
5435
5436
5437
5438
5439
5448
5449
5450
5459
5460
5465
5466
5467
5468
5469
5470
5477
5478
5479
5480
5481
5482
5483
5484
5508
5509
5510
5511
5512
5513
5514
5515
5516
5523
5524
5525
5536
5537
5538
5539
5540
5541
5597
5606
5612
5621
5649
5659
5674
5681
5687
5688
5692
5698
5699
5739
5770
5785
5788
5791
5794
5816
5817
5822
5823
5833
5834
5839
5842
5843
5881
5882
5895
5896
5940
5941
5942
5943
5944
5948
5949
5955
5956
5957
5962
6039
6040
6041
6042
6043
6044
6045
6046
6053
6054
6055
6056
6057
6058
6059
6060
6061
6062
6063
6064
6065
6066
6067
6068
6069
6070
6071
6072
6073
6074
6075
6076
6077
6078
6079
6080
6081
6082
6083
6084
6085
6086
6087
6088
6097
6098
6113
6114
6115
6116
6117
6118
6119
6120
6121
6124
6125
6126
6127
6128
6129
6133
6134
6135
6136
6137
6138
6139
6140
6141
6142
6143
6144
6145
6146
6148
6151
6152
6153
6154
6155
6156
6157
6158
6159
6160
6161
6162
6163
6164
6165
6166
6167
6168
6169
6170
6171
6172
6173
6174
6175
6179
6180
6182
6185
6187
7300
7301
7302
7303
7304
7305
7306
7307
7308
7309
7310
7311
7312
7313
7314
7315
7316
7317
7318
7319
7320
7321
7322
7323
7324
7325
7326
7327
7328
7329