/*--------------------------------*- C++ -*----------------------------------*\
  =========                 |
  \\      /  F ield         | OpenFOAM: The Open Source CFD Toolbox
   \\    /   O peration     | Website:  https://openfoam.org
    \\  /    A nd           | Version:  8
     \\/     M anipulation  |
\*---------------------------------------------------------------------------*/
/*   Windows 32 and 64 bit porting by blueCAPE: http://www.bluecape.com.pt   *\
|  Based on Windows porting (2.0.x v4) by Symscape: http://www.symscape.com   |
\*---------------------------------------------------------------------------*/
FoamFile
{
    version     2.0;
    format      ascii;
    class       scalarListList;
    location    "constant/vegetation";
    object      kcLAIboundary;
}
// * * * * * * * * * * * * * * * * * * * * * * * * * * * * * * * * * * * * * //


5
(

544
(
0.029872611
0.00029002704
0.026900999
0.003230175
0.001622688
0
0.18154851
0.012714523
0.011611862
0
0.15079392
0.02160309
1.3200212
0.90773254
0.30339228
0.99683597
2.0602887
0.031241529
1.5893769
0.78169616
0.17289844
0.8223719
0.37477464
1.489958
0.75581828
0.00028063105
0.87584571
1.1112204
1.951937
1.545905
1.9141124
0.0035876793
0.67936982
1.6119601
1.1858437
0
0.01311146
0.55207544
2.0977311
0.037661989
0
0
0
0
0
0
0
0
0
0
0
0
0
0
0
0
0
0
0
0
0
0
0
0
0
0
0
0
0
0
0
0
0
0
0
0
0
0
0
0
0
0
0
0
0
0
0
0
0
0
0
0
0
0
0
0
0
0
0
0
0
0
0
0
0
0
0
0
0
0
0
0
0
0
0
0
0
0
0
0
0
0
0
0
0
0
0
0
0
0
0
0
0
0
0
0
0
0
0
0
0
0
0
0
0
0
0
0
0
0
0
0
0
0
0
0
0
0
0
0
0
0
0
0
0
0
0
0
0
0
0
0
0
0
0
0
0
0
0
0
0
0
0
0
0
0
0
0
0
0
0
0
0
0
0
0
0
0
0
0
0
0
0
0
0
0
0
0
0
0
0
0
0
0
0
0
0
0
0
0
0
0
0
0
0
0
0
0
0
0
0
0
0
0
0
0
0
0
0
0
0
0
0
0
0
0
0
0
0
0
0
0
0
0
0
0
0
0
0
0
0
0
0
0
0
0
0
0
0
0
0
0
0
0
0
0
0
0
0
0
0
0
0
0
0
0
0
0
0
0
0
0
0
0
0
0
0
0
0
0
0
0
0
0
0
0
0
0
0
0
0
0
0
0
0
0
0
0
0
0
0
0
0
0
0
0
0
0
0
0
0
0
0
0
0
0
0
0
0
0
0
0
0
0
0
0
0
0
0
0
0
0
0
0
0
0
0
0
0
0
0
0
0
0
0
0
0
0
0
0
0
0
0
0
0
0
0
0
0
0
0
0
0
0
0
0
0
0
0
0
0
0
0
0
0
0
0
0
0
0
0
0
0
0
0
0
0
0
0
0
0
0
0
0
0
0
0
0
0
0
0
0
0
0
0
0
0
0
0
0
0
0
0
0
0
0
0
0
0
0
0
0
0
0
0
0
0
0
0
0
0
0
0
0
0
0
0
0
0
0
0
0
0
0
0
0
0
0
0
0
0
0
0
0
0
0
0
0
0
0
0
0
0
0
0
0
0
0
0
0
0
0
0
0
0
0
0
0
0
0
0
0
0
0
0
0
0
0
0
0
0
0
0
0
0
0
0
0
0
0
0
0
0
0
0
0
0
0
0
0
0
0
0
0
0
0.38310862
1.6254868
0.37876782
0.80852547
0.21661242
0.61667709
1.6297792
0.29236908
0.2101217
)


544
(
0.023668856
0.00070285072
0.64044964
0
0.026089114
0
0.7677906
0.2587194
0.33357074
0.0018002711
0.19239424
0.0064604632
1.2209988
1.0964693
0.094630202
0.67051845
1.2449856
0
1.7900611
1.8761526
0.52313684
1.4310644
0.15288921
0.38648355
0.041127096
0.036900668
0.47498608
0.37627035
1.6043231
0.99890758
0.9138104
0.011541185
1.5045791
1.2209517
0.40396709
0
0.0059079917
0.32532298
1.7871847
0.051330471
0
0
0
0.00030366471
0.31819994
0.31045659
0.00022169515
0.020405146
0.013250058
0.11770432
0.099491264
0.23317571
0.00088752494
0.040468347
0.15524891
0.0023812365
0.00010414238
0.040043097
0.18449254
0.2592688
0.19696481
0.30273436
7.2956754e-05
0.00013296686
0.027940263
0.013669946
0.0064752412
0.0093711438
8.6574853e-05
0.080366068
0.039718479
0.033035923
0.17063673
0.18121785
0.033197404
0.028112938
0.18492796
0.29503312
0.16727797
0.15831611
6.0775586e-05
3.7478141e-05
0.00083791899
0.00078370641
0.02799006
0.022129075
0.02047651
0.081050757
0.1173756
0.012754621
0.11139229
0.0039675923
0.0016357385
0.0087592765
0.0015076522
0.0069110887
0.13773719
0.18940163
3.5015365e-05
0.028763678
0.0054529148
0.004981655
0.0248078
0.020499189
0.12680007
0.087303114
0.079301218
0.17738005
0.18185879
0.16985534
2.820949e-05
0.00013276931
0.00015218752
0.013769915
0.012552376
0.071206167
0.028719761
0.068184817
0.0025261277
0.0051430709
0.0023244439
0
0
0
0
0
0
0
0
0
0
0
0
0
0
0
0
0
0
0
0
0
4.2517934e-05
0.016479234
0.13502708
0.022479782
0.15237151
0.12993112
3.1263293e-05
0.00058987881
0.019605424
0.01628428
0.010088442
0.09330604
0.006910624
0.0011145958
0
0
0
0
0
0
0
0
0
0
0
0
0
0
0
0
0
0
0
0
0
0
0
0
0
0
0
0
0
0
0
0
0
0
0
0
0
0
0
0
0
0
0
0
0
0
0
0
0.0017988202
0.0087172601
0.007661808
0.013148386
0.089424368
0
0.015591852
0
0.011061574
0.10640969
0
0.084161758
0
0.005846501
0.063091769
0
0
0.00019971936
0
0.0038235447
0.00044308407
0
0
0
0
0
0
0
0
0
0
0
0
0
0
0
0
0
0
0
0
0
0
0
0
0
0
0
0
0
0
0
0
0
0
0
0
0
0
0
0
0
0
0
0
0
0
0
0
0
0
0
0
0
0
0
0
0
0
0
0
0
0
0
0
0
0
0
0
0
0
0
0
0
0
0
0
0
0
0.0012743662
0.010369729
0.09911251
0.059516095
0.14487061
0.13738957
1.3253017e-05
0.00015786296
0.009541805
0.026693426
0.058137417
0.0041135382
0.0017318375
0
0
0
0
0
0
0
0
0
0
0
0
0
0
0
0
0
0
0
0
0
0
0
0
0
0
0
0
0
0
0.0028296676
0
0
0
0
0
0
0
0
0
0
0
0
0
0
0
0
0
0
0
0
0
0
0
0
0
0
0
0
0
0
0
0
0
0
0
0
0
0
0
0
0
0
0
0
0
0
0
0
0
0
0
0
0
0
0.0041438863
0.0068080323
0.010626396
0.064672911
0.046059153
0.036243024
0.0089585217
0.005983661
0.0063401728
0.098972788
0.054644724
0.091556256
0.034076375
0.019137668
0.0005633998
0.039250695
0.024096452
6.6654495e-07
0
4.8990553e-05
0
0.0021809646
0
0.00091836927
0
0
0
0
0
0
0
0
0
0
0
0
0
0
0
0
0
0
0
0
0
0
0
0
0
0
0
0
0
0
0
0
0
0
0
0
0
0
0
0
0
0
0
0
0
0
0
0
0
0
0
0
0
0
0
0
0
0
0
0
0
0
0
0
0
0.00032040538
0
0
0
0
0
0
0
0
0
0
0
0
0
0
0
0
0
0
0
0
0
0
0
0
0
0
0
0.0025622923
0.033039887
0.017362518
0.0029627788
0.048746555
0.041659779
0.0047243007
0.012205725
0
0
0
0
0
0
0
0
0
0.23874752
1.7464286
0.45683759
0.7545513
0.22256279
0.42040917
0.92734646
0.39721772
0.24412945
)


544
(
0.23409983
0.087882071
1.7727535
0
0.56671426
0.00037692403
0.58834718
0.78063747
1.5630009
0.00065785591
0.21629343
0.0029337061
0.46311244
0.86344413
0.037536796
0.29950159
0.48487579
0.074450907
1.3887448
1.8175032
0.91091777
1.5504847
0.10133282
0.15767809
0.046205594
0.012637396
0.20451374
0.16034609
1.0667333
0.5754112
0.38466787
0.60155023
1.3380677
0.79173908
0.058310007
0.39468157
0
0.14503903
0.86806939
0.073402934
0
0
0
0.062231517
1.0507649
1.260821
0.028950155
0.32859793
0.20044623
0.44762609
0.45932974
1.088667
0.00085534953
0.27564741
0.96541371
0.0012754791
0.027308386
0.094050311
0.67609449
0.8401049
0.84628421
1.3256315
0.0082863302
6.2206068e-05
0.53798984
0.27060982
0.12604517
0.14626542
0.024328338
0.2146634
0.23238116
0.21280246
0.64200252
0.63513839
0.23450788
0.22048761
0.805065
1.2074225
0.80526572
0.77467215
0.0068205911
0.00045092735
0.00061790092
0.0005850087
0.0840899
0.10986011
0.10035443
0.75026053
0.710145
0.26241497
0.6826754
0.054295933
0.0085571246
0.13921971
0.0097200371
0.044866087
0.49904503
1.0045274
0.00013094516
0.42039732
0.097712436
0.040377965
0.062803519
0.054960204
0.47201897
0.35479593
0.33630306
0.96130039
0.90338723
0.86970412
0.00013049641
0.00036658027
0.00034986891
0.0039003538
0.0036783858
0.57579423
0.40644963
0.55603859
0.051807515
0.093397184
0.050238897
0
0
0
0
0
0
0
0
0
0.089367551
0.15551589
0.078162435
0
0.0070784156
0
0
0
0
0
0
0
0.016969904
0.16287806
0.55302418
0.18468368
0.69693495
0.69056918
0.0035437726
0.0004885595
0.30110412
0.076672551
0.23766073
0.60695257
0.11889805
0.011622153
0
0
0
0
0
0
0
0
0
0
0
0
0
0
0
0
0
0
0
0
0
0
0
0
0
0.039156134
0
0
0.010929943
0
0.070226316
0.044176283
0
0
0
0
0
0
0
0
0
0
0
0
0
0
0
0.0083049352
0
0.10011383
0.091447078
0.21271764
0.43558622
0.043020987
0.13925995
0.00030380851
0.048395176
0.55241763
0.18616978
0.56834913
0.14084472
0.19612836
0.49658926
0.00064395113
0
0.00033404245
0
0.095377071
0.011181018
0
0
0
0
0
0
0
0
0
0
0
0
0
0
0
0
0
0
0
0
0
0
0
0
0.071967599
0
0
0
0
0
0
0
0
0
0
0
0
0
0
0
0
0
0
0
0
0
0
0
0
0
0
0
0
0
0
0
0
0
0
0
0
0
0
0
0
0
0
0
0
0
0
0
0
0
0
0
0
0
0.028930823
0.039430747
0.40226528
0.2883253
0.8339484
0.77717952
0.00012177293
0.00029732954
0.003102311
0.36603749
0.5000335
0.080490272
0.044727537
0
0
0
0
0
0
0
0
0
0
0
0
0
0
0
0
0
0
0
0
0
0
0
0
0
0
0
0
0
0
0.013183574
0
0.012524595
0.007128674
0
0
0
0
0
0
0
0
0
0.097812187
0.009926195
0
0
0
0
0
0
0
0
0
0
0
0
0
0
0
0
0
0
0
0
0
0
0
0
0
0
0
0
0
0
0
0
0
0
0
0
0
0
0.014502317
0.0011388063
0.019237494
0.047464001
0.13543444
0.31189459
0.31987909
0.22576562
0.09530899
0.0023480579
0.025692092
0.66236552
0.40409496
0.64311002
0.42925828
0.30246324
0.1406457
0.41440552
0.37250697
9.1028604e-05
1.9984996e-06
0.00020468803
0.00014209391
0.059152934
0.066654993
0.033840049
0.0063640285
0
0
0
0
0
0
0
0
0
0
0
0.0013416978
0
0
0
0
0
0
0
0
0
0
0
0
0
0
0
0
0
0
0
0
0
0
0
0
0
0
0
0
0
0
0
0
0
0
0
0
0
0
0
0
0
0
0
0
0
0
0
0
0
0
0
0
0
0
0.0014605511
0
0
0
0
0
0.0086808503
0
0
0
0
0
0
0
0
0
0
0
0
0
0
0
0
0
0
0.0010460911
0
0.22673899
0.16551658
0.0015945445
0.48736001
0.49327757
0.22584357
0.31063007
3.35229e-05
7.8049491e-05
0.031450726
0.018025936
0
0
0
0
0
0.11291177
1.8556754
0.50604981
0.85127383
0.18522758
0.33542468
0.55955353
0.47927107
0.23205323
)


544
(
1.1660235
0.00073850965
1.3500674
1000
1.1164301
1000
0.16854238
0.36587902
1.7300963
0.10806338
0.1651108
0.0065685885
0.16299092
0.60871444
1000
1000
0.57813769
1000
0.95749043
1.1898429
0.70765124
1.2218873
1000
1000
0.28416429
0.062484282
1000
1000
1000
1000
1000
0.88358638
0.39217853
1000
0.08036327
1000
1000
1000
1000
0.00018137428
0
0
0
0.0015145827
1.29612
1.563198
0.00063460234
1.2114106
0.96001914
0.43170251
0.49250547
1.8128575
0.076253807
0.22321178
1.8190535
0.11036395
0.0010232491
0.0024081453
1.1839187
1.0302346
1.4602467
1.7975609
0.00035609816
0.008959763
1.4317833
1.0367301
0.66953498
0.77809585
0.00095025971
0.12110968
0.26299307
0.24446599
1.1359762
0.76242871
0.41355678
0.38661565
1.4145852
1.8056933
1.730968
1.694867
0.00032170495
0.042452601
0.054688188
0.051185212
0.00013782677
0.16072348
0.14704477
1.6505896
1.7162312
0.9967697
1.6803823
0.37944571
0.10267081
0.73707052
0.10008669
0.0016703421
0.90882235
1.7377633
0.010155815
1.300065
0.54629109
0.0015589851
0.040996232
0.034096154
0.85849761
0.65949626
0.6193771
1.694485
1.7458335
1.7094857
0.0098290573
0.032010032
0.030091439
0.00020727191
0.00019450306
1.5614608
1.2639265
1.5290457
0.32113891
0.51805244
0.30576522
0
0
0
0
0
0
0
0
0.00016733227
0.13962475
0.68611728
0.50487569
5.5843861e-05
0.072378832
0
0
0
0
0
0
0
0.00076171927
0.19688744
1.0057363
0.31680858
1.2907145
1.5972148
0.00023706295
0.041352873
0.36963344
0.11292797
0.88967269
1.5834016
0.62321249
0.090310057
0
0
0
0
0
0
0
0
0
0
0
0
0
0
0
0
0
0
0
0
0
0
0
0
0
0.025117778
0
0
0.010483893
0
0.26082421
0.21533472
0
0
0
0
0
0
0
0
0
0
0
0
0
0
0
0.00051690246
0.011228021
0.13625788
0.10758351
0.26448995
0.82072826
0.026099767
0.22559347
0
0.072154656
1.1145929
0.94672502
1.4592907
0.92222581
0.74060379
1.4464303
0.0001390657
0.00032590903
0.026603543
0.024819363
0.45549632
0.069375576
0
0
0
0
0
0
0
0
0
0
0
0
0
0
0
0
0
0
0
0
0
0
0
0
0.3733465
0.096924266
0
0
0
0
0
0
0
0
0
0
0
0
0
0
0
0
0
0
0
0
0
0
0
0
0
0
0
0
0
0
0
0
0
0
0
0
0
0
0
0
0
0
0
0
0
0
0
0.00060560822
0
0
0
0.0064838286
0.0012662766
0.01810689
0.72201649
0.51377814
1.5768542
1.6111556
0.0085845736
0.02455727
0.00016084667
1.1669668
1.442348
0.43892041
0.26126594
0
0
0
0
0
0
0
0
0
0
0
0
0
0
0
0
0
0
0
0
0
0
0
0
0
0
0
2.8874435e-05
0
0
0.016017006
0
0.008637771
0.0054387177
0
0
0
1.1194176e-05
0
0.0029280125
0.010975309
0
0
0.39314997
0.088838112
0
0
0
0
0
0
0
0
0
0
0
0
0
0
0
0
0
0
0
0
0
0
0
0
0
0
0
0
0
0
0
0
0
0
0
0
0
0
0.00087469473
0.00027466896
0.0019736153
0.080209269
0.15794461
0.52810413
0.62256482
0.37214253
0.13420328
0.00011544225
0.039251753
1.40964
0.91540301
1.4722796
1.3084623
1.0322991
0.57535725
1.3220627
1.2970585
0.0059521519
6.4642851e-05
0.015865401
0.009422673
0.32012456
0.27690337
0.19140945
0.035911314
0
0
0
0
0
0
0
0
0
0
0
0.14990266
0
0
0
0
0
0
0
0
0
0
0
0
0
0
0
0
0
0
0
0
0
0
0
0
0
0
0
0
0
0
0
0
0
0
0.00025228826
0
0.0066762255
0
0
0
0
0
0
0
0
0
0
0
0
0
0.00011538547
0
0.0056687647
0
0.0020730691
0
0
0
0.00049147695
0
0.15392647
0
0
0
0
0
0
0
0
0
0
0
0
0
0
0
0
0
0
0.00047935287
0.0006507867
0.31067082
0.22898537
6.831677e-05
1.2309279
1.3208351
0.89361629
1.1882795
0.00195787
0.0051461721
0.17968668
0.10700566
0
0
0
0
0
0.095856947
1.5184513
0.60957472
0.86103176
0.24696967
0.25218135
0.55514292
0.69875577
0.23152455
)


544
(
0.88566942
1000
0.65320619
1000
1000
1000
1000
0.0054480127
1.7454095
1000
1000
1000
0.12427961
1000
1000
1000
0.84748137
1.6451484
1.9350999
1.5285622
1000
2.2950111
1.5789154
1.3892096
0.25051713
1000
1000
1.6631229
1.7671372
1.6986899
1.2807036
0.44698432
0.12633042
1000
0.041176835
1.5919529
1000
1000
1.5754716
1000
0
0
0
1000
0.67027584
0.9391081
1000
1000
1000
1000
0.1053817
1.5474548
1000
1000
1.5972567
1000
1000
1000
0.82181141
0.4681066
1.042007
1.2086135
1000
1000
1000
1000
1000
1000
1000
1000
1000
1000
0.82384403
0.28706218
0.14266725
0.14279853
1.0437981
1.4787968
1.5427783
1.5412844
1000
1000
1000
1000
1000
0
0
1.6470315
1.5945914
1000
1.5939211
1000
1000
1000
1000
1000
0.59732092
1.2628565
1000
1000
1000
1000
1000
1000
0.59782267
0.3703034
0.36999774
1.2634705
1.4844023
1.4827413
1000
1000
1000
1000
1000
1.6463734
1000
1.6462581
1000
1000
1000
0
0.00019865069
0
0.0038038787
0
0
0
0
0
0.36407878
0.85494234
1.2755298
0.034720741
0.85557017
0
0
0
0
0
0
0
1000
1000
0.78141225
0.13667612
1.0085256
1.5245121
1000
1000
1000
0
1000
1.5836922
1000
1000
0
0
0
0
0
0
0
0
0
0
0
0
0
0
0
0
0
0
0
0
0
0
0
0
0
0.032987169
0.0032592807
0.0049680338
0.38547329
0.0072485062
0.44775505
0.79053698
0
0
0
0
0
0
0
0
0
0
0
0
0
0
0
0
0
0.065530395
0.199852
0.25915586
0.72190627
0.13712708
0.12734566
0
0
0.9590414
1.2721273
1.501155
1.4614034
1.3902173
1.5695481
0.024973957
0.1245345
0.25150218
0.44547938
1.2291128
0.51269946
0
0
0
0
0
0
0
0
0
0
0
0
0
0
0
0
0
0
0
0
0
0
0
0
0.98580444
0.35465767
0
0
0
0
0
0
0
0
0
0
0
0
0
0
0
0
0
0
0
0
0
0
0
0
0
0
0
0
0
0
0
0
0
0
0
0
0
0
0
0
0
0
0
0
0
0
0
0.00079348338
0
0
0.0070587578
0.025334898
1000
1000
0.56316003
0.34955447
1.2352552
1.4616857
1000
1000
1000
1000
1.6425475
1000
1000
0
0
0
0
0
0
0
0
0
0
0
0
0
0
0
0
0
0
0
0
0
0
0
0
0
0
0
0
0
0
0.036498631
0
0.011494679
0.00092580842
0
0.0012950674
0.018397428
0.017977615
0
0.16958506
0.15464311
0.0093010258
0.04283347
0.79858244
0.19661588
0
0
0
0
0
0
0
0
0
0
0
0
0
0
0
0
0
0
0
0
0
0
0
0
0
0
0
0
0
0
0
0
0
0
0
0
0
0
0
0
0
0.062466068
0.22248768
0.51356118
0.66181909
0.32009968
0.11329276
0
0
1.195809
0.9011253
1.4322619
1.4774654
1.551966
1.3447171
1.6376198
1.5531364
0.10075888
0.019489929
0.17627336
0.22179954
1.0350295
1.1689113
0.77406155
0.46042897
0
0
0
0
0
0
0
0
0
0
0
0.45502873
0
0
0
0
0
0
0
0
0
0
0
0
0
0
0
0
0
0
0
0
0
0
0
0
0
0
0
0
0
0
0
0
0
0
0
0
0.045238333
0
0
0
0
0
0
0
0
0
0
0
0
0
0
0
0
0
0
0
0.0071887997
0
0.062306894
0.05656958
0.36063758
0
0
0
0
0
0
0
0
0
0
0
0
0
0
0
0
0
0
0
0
0.45556086
0.29012435
0
1.1575894
1.39593
1.5340728
1.63402
0.088783421
0.15308282
0.95626129
0.71730526
0
0
0
0
0
0.55776498
1.3001092
0.66601584
1000
0.16085641
0.22081014
1.77621
0.80634724
0.21283961
)

)


// ************************************************************************* //
