/*--------------------------------*- C++ -*----------------------------------*\
  =========                 |
  \\      /  F ield         | OpenFOAM: The Open Source CFD Toolbox
   \\    /   O peration     | Website:  https://openfoam.org
    \\  /    A nd           | Version:  8
     \\/     M anipulation  |
\*---------------------------------------------------------------------------*/
/*   Windows 32 and 64 bit porting by blueCAPE: http://www.bluecape.com.pt   *\
|  Based on Windows porting (2.0.x v4) by Symscape: http://www.symscape.com   |
\*---------------------------------------------------------------------------*/
FoamFile
{
    version     2.0;
    format      ascii;
    class       scalarListList;
    location    "constant/vegetation";
    object      solarLoadFineFaces;
}
// * * * * * * * * * * * * * * * * * * * * * * * * * * * * * * * * * * * * * //


5
(

1074
(
717.08284
717.08284
717.08284
717.08284
717.08284
717.08284
717.08284
717.08284
717.08284
717.08284
717.08284
717.08284
717.08284
717.08284
717.08284
717.08284
717.08284
717.08284
717.08284
717.08284
717.08284
717.08284
717.08284
191.55408
717.08284
717.08284
717.08284
191.55408
717.08284
717.08284
717.08284
717.08284
717.08284
91.368673
91.368673
717.08284
717.08284
717.08284
717.08284
146.3227
328.158
328.158
717.08284
717.08284
146.3227
717.08284
161.61765
336.76087
717.08284
717.08284
717.08284
717.08284
717.08284
236.03285
717.08284
101.82487
152.82391
717.08284
105.75012
105.75012
101.82487
336.76087
717.08284
717.08284
363.51536
363.51536
191.55408
143.0553
143.0553
717.08284
219.06044
219.06044
91.368673
717.08284
717.08284
717.08284
717.08284
717.08284
717.08284
717.08284
717.08284
717.08284
236.03285
717.08284
236.03285
101.82487
143.0553
143.0553
152.82391
152.82391
152.82391
717.08284
152.82391
298.6719
88.010865
88.010865
105.75012
88.010865
88.010865
101.82487
717.08284
717.08284
717.08284
717.08284
717.08284
717.08284
717.08284
717.08284
717.08284
717.08284
717.08284
717.08284
717.08284
717.08284
717.08284
717.08284
717.08284
717.08284
717.08284
717.08284
717.08284
717.08284
717.08284
717.08284
717.08284
717.08284
717.08284
717.08284
717.08284
717.08284
717.08284
717.08284
717.08284
717.08284
191.55408
328.158
191.55408
717.08284
717.08284
289.29844
717.08284
717.08284
717.08284
717.08284
717.08284
717.08284
717.08284
717.08284
91.368673
88.010865
88.010865
717.08284
717.08284
717.08284
717.08284
717.08284
717.08284
146.3227
328.158
146.3227
315.07776
315.07776
146.3227
717.08284
717.08284
717.08284
161.61765
161.61765
161.61765
336.76087
161.61765
161.61765
717.08284
717.08284
717.08284
717.08284
717.08284
717.08284
717.08284
717.08284
717.08284
105.75012
91.368673
91.368673
717.08284
717.08284
717.08284
717.08284
717.08284
717.08284
717.08284
717.08284
717.08284
717.08284
717.08284
717.08284
717.08284
80.639504
80.639504
80.639504
80.639504
80.639504
80.639504
80.639504
80.639504
80.639504
80.639504
80.639504
80.639504
80.639504
80.639504
80.639504
80.639504
80.639504
80.639504
80.639504
80.639504
80.639504
80.639504
80.639504
80.639504
80.639504
80.639504
80.639504
80.639504
80.639504
80.639504
80.639504
80.639504
80.639504
80.639504
80.639504
80.639504
80.639504
80.639504
80.639504
80.639504
80.639504
80.639504
80.639504
80.639504
80.639504
80.639504
80.639504
80.639504
80.639504
80.639504
80.639504
80.639504
80.639504
80.639504
80.639504
80.639504
80.639504
80.639504
80.639504
80.639504
80.639504
80.639504
80.639504
80.639504
80.639504
80.639504
80.639504
80.639504
80.639504
80.639504
80.639504
80.639504
80.639504
80.639504
80.639504
80.639504
80.639504
80.639504
80.639504
80.639504
80.639504
80.639504
80.639504
80.639504
80.639504
80.639504
80.639504
80.639504
80.639504
80.639504
80.639504
80.639504
717.08284
717.08284
80.639504
717.08284
717.08284
80.639504
717.08284
80.639504
80.639504
80.639504
80.639504
80.639504
80.639504
80.639504
80.639504
80.639504
80.639504
80.639504
80.639504
80.639504
80.639504
80.639504
717.08284
80.639504
80.639504
80.639504
717.08284
80.639504
717.08284
717.08284
80.639504
80.639504
717.08284
80.639504
717.08284
80.639504
717.08284
717.08284
80.639504
80.639504
717.08284
80.639504
717.08284
80.639504
80.639504
80.639504
80.639504
80.639504
80.639504
80.639504
80.639504
80.639504
80.639504
80.639504
80.639504
80.639504
717.08284
80.639504
80.639504
80.639504
717.08284
717.08284
80.639504
80.639504
80.639504
80.639504
80.639504
80.639504
80.639504
80.639504
80.639504
80.639504
80.639504
80.639504
80.639504
80.639504
80.639504
80.639504
80.639504
80.639504
80.639504
80.639504
80.639504
80.639504
80.639504
80.639504
80.639504
80.639504
80.639504
80.639504
80.639504
80.639504
717.08284
717.08284
717.08284
717.08284
80.639504
80.639504
80.639504
717.08284
717.08284
717.08284
717.08284
717.08284
717.08284
80.639504
80.639504
80.639504
717.08284
717.08284
717.08284
80.639504
80.639504
717.08284
80.639504
80.639504
80.639504
80.639504
717.08284
80.639504
717.08284
717.08284
717.08284
80.639504
717.08284
717.08284
717.08284
80.639504
717.08284
717.08284
717.08284
80.639504
717.08284
717.08284
717.08284
717.08284
80.639504
717.08284
717.08284
717.08284
80.639504
717.08284
717.08284
80.639504
717.08284
717.08284
717.08284
80.639504
717.08284
717.08284
717.08284
80.639504
717.08284
717.08284
717.08284
80.639504
717.08284
717.08284
80.639504
80.639504
80.639504
80.639504
80.639504
80.639504
80.639504
80.639504
80.639504
80.639504
80.639504
80.639504
80.639504
80.639504
80.639504
80.639504
80.639504
80.639504
80.639504
80.639504
80.639504
80.639504
80.639504
80.639504
80.639504
80.639504
80.639504
80.639504
80.639504
80.639504
80.639504
80.639504
80.639504
80.639504
80.639504
80.639504
80.639504
80.639504
80.639504
80.639504
80.639504
80.639504
80.639504
80.639504
80.639504
80.639504
80.639504
80.639504
80.639504
80.639504
80.639504
80.639504
80.639504
80.639504
80.639504
80.639504
80.639504
80.639504
80.639504
80.639504
80.639504
80.639504
80.639504
80.639504
80.639504
80.639504
80.639504
80.639504
717.08284
717.08284
717.08284
717.08284
717.08284
717.08284
717.08284
717.08284
717.08284
717.08284
717.08284
717.08284
717.08284
717.08284
717.08284
717.08284
717.08284
717.08284
717.08284
717.08284
717.08284
717.08284
80.639504
80.639504
80.639504
80.639504
80.639504
80.639504
80.639504
80.639504
80.639504
80.639504
80.639504
80.639504
80.639504
80.639504
80.639504
80.639504
80.639504
80.639504
80.639504
80.639504
80.639504
80.639504
80.639504
80.639504
80.639504
80.639504
80.639504
80.639504
80.639504
80.639504
80.639504
80.639504
80.639504
80.639504
80.639504
80.639504
80.639504
80.639504
80.639504
80.639504
80.639504
80.639504
80.639504
80.639504
80.639504
80.639504
80.639504
80.639504
80.639504
80.639504
80.639504
80.639504
80.639504
80.639504
80.639504
717.08284
80.639504
717.08284
717.08284
80.639504
717.08284
717.08284
80.639504
717.08284
717.08284
80.639504
717.08284
717.08284
80.639504
717.08284
717.08284
80.639504
717.08284
717.08284
80.639504
717.08284
717.08284
80.639504
717.08284
717.08284
80.639504
717.08284
717.08284
80.639504
717.08284
80.639504
80.639504
80.639504
80.639504
80.639504
80.639504
80.639504
80.639504
80.639504
80.639504
80.639504
80.639504
80.639504
80.639504
80.639504
80.639504
80.639504
80.639504
80.639504
80.639504
80.639504
80.639504
80.639504
80.639504
80.639504
80.639504
80.639504
80.639504
80.639504
80.639504
80.639504
717.08284
717.08284
717.08284
717.08284
717.08284
717.08284
717.08284
717.08284
717.08284
717.08284
80.639504
80.639504
80.639504
80.639504
80.639504
80.639504
80.639504
80.639504
80.639504
80.639504
80.639504
80.639504
80.639504
80.639504
80.639504
80.639504
80.639504
80.639504
80.639504
80.639504
80.639504
80.639504
80.639504
80.639504
80.639504
80.639504
178.35923
0
0
128.01151
0
0
192.33854
91.303622
19.43988
0
0
0
0
6.2452996
376.41058
56.982164
267.34644
131.61537
659.98105
664.20621
716.96869
92.258272
301.12708
51.015597
133.20522
69.227071
19.600472
0
0
0
0
0
13.069825
46.107588
0
0
0
0
0
0
0
167.85167
0
0
152.17552
116.49816
0
105.66411
83.035761
90.142751
75.849627
0
0
122.15737
182.71346
247.04523
188.9705
50.966166
1.214346
0
0
421.2108
709.21978
689.11209
648.75484
175.34223
286.09582
141.41202
0
0
0
0
370.872
298.40134
363.1766
190.25707
58.508561
58.925931
165.69618
0
124.11605
0
0
0
0
0
0
0
0
0
40.612475
32.717373
0
18.735426
0
101.33429
0
0
0
0
0
0
0
255.51773
82.02183
151.02036
3.8930987
117.8425
197.20835
536.42904
618.62169
662.24076
473.29505
518.69965
643.59621
432.5934
432.17542
403.04551
500.43119
661.90792
241.04444
690.96662
731.75791
681.72615
717.12588
707.78695
721.24959
743.95295
126.19907
153.51764
402.5491
381.65622
231.6363
333.30898
0
352.0742
348.32629
286.02447
16.090566
24.380349
5.883897
51.799782
152.90915
475.32443
408.53355
223.26632
222.72744
240.82544
531.28142
585.91116
269.50192
294.01846
432.99438
509.4804
380.51496
408.55315
117.08766
96.577152
27.814038
18.195598
119.40169
61.887472
0
0
0
50.703496
2.3386363
0
27.323708
552.34773
511.95397
0
202.06956
31.195524
0
0
0
0
0
0
0
0
0
0
0
0
35.354755
0
0
0
0
0
0
0
0
0
0
71.569979
102.59427
531.31399
587.58202
129.67452
498.87357
568.6896
7.2949138
57.27676
0
0
0
0
388.57579
461.87161
518.07039
447.36911
422.27967
311.28951
454.25595
435.44404
0
0
0
0
0
0
0
0
0
0
0
0
0
0
0
44.668181
45.984329
0
0
232.43762
288.55078
224.18389
124.35948
46.154832
115.09762
0
130.4766
214.3967
276.17577
264.56544
222.42336
59.682468
94.141799
82.636331
0
0
107.12026
0
0
0
0
0
448.5981
557.33214
310.23709
491.35814
251.57695
0
0
79.274988
0
0
0
0
0
0
0
0
0
0
0
0
0
0
0
0
10.726103
0
79.132461
0
0
0
0
0
0
0
0
0
0
0
0
0
0
0
0
325.83577
56.691162
0
0
56.589589
0
206.71535
128.93216
500.79997
394.62143
427.41101
257.83341
196.13138
126.56209
500.30002
214.84023
136.31811
641.00923
727.71906
565.586
590.45609
582.10964
751.18399
186.97046
325.69009
292.2143
267.15216
0
0
0
130.64565
157.58123
157.9055
140.6246
105.26284
155.95362
0
0
0
157.36308
139.76113
70.949378
0
337.17184
332.68605
424.06718
300.43955
244.01048
246.69845
241.36981
303.91908
445.99187
379.40721
517.74498
530.43505
236.15251
308.77322
377.64929
107.85244
72.315482
28.498713
83.060594
193.08793
168.42212
196.79952
255.97954
154.21759
319.45224
193.39751
593.85167
362.29669
60.947405
7.5036668
46.707192
23.205311
51.213908
24.701451
0
0
0
675.62953
486.0123
)


1074
(
585.76158
585.76158
585.76158
585.76158
585.76158
585.76158
585.76158
585.76158
585.76158
585.76158
308.7288
585.76158
308.7288
585.76158
585.76158
585.76158
585.76158
585.76158
585.76158
585.76158
585.76158
585.76158
585.76158
172.76185
585.76158
585.76158
585.76158
172.76185
585.76158
585.76158
585.76158
585.76158
585.76158
168.66715
168.66715
585.76158
585.76158
585.76158
585.76158
97.792878
89.72597
89.72597
585.76158
140.02885
97.792878
585.76158
585.76158
585.76158
585.76158
585.76158
585.76158
585.76158
585.76158
585.76158
585.76158
117.75306
215.72518
585.76158
234.88651
234.88651
117.75306
585.76158
585.76158
585.76158
130.10395
130.10395
172.76185
172.76999
172.76999
585.76158
391.09315
585.76158
168.66715
585.76158
585.76158
585.76158
585.76158
585.76158
585.76158
585.76158
585.76158
585.76158
585.76158
585.76158
585.76158
117.75306
172.76999
172.76999
585.76158
215.72518
215.72518
585.76158
585.76158
585.76158
98.074574
98.074574
234.88651
98.074574
98.074574
117.75306
585.76158
585.76158
585.76158
585.76158
585.76158
585.76158
585.76158
585.76158
585.76158
585.76158
585.76158
585.76158
585.76158
585.76158
585.76158
585.76158
89.72597
89.72597
419.61688
585.76158
585.76158
585.76158
585.76158
130.10395
130.10395
585.76158
585.76158
585.76158
585.76158
585.76158
585.76158
585.76158
585.76158
585.76158
172.76185
89.72597
172.76185
585.76158
195.67274
195.67274
585.76158
140.02885
585.76158
585.76158
585.76158
585.76158
585.76158
585.76158
168.66715
98.074574
98.074574
585.76158
585.76158
585.76158
585.76158
585.76158
585.76158
97.792878
89.72597
97.792878
140.02885
140.02885
97.792878
585.76158
585.76158
585.76158
585.76158
585.76158
585.76158
585.76158
585.76158
585.76158
585.76158
585.76158
585.76158
585.76158
585.76158
585.76158
585.76158
585.76158
585.76158
234.88651
168.66715
168.66715
585.76158
585.76158
585.76158
585.76158
585.76158
585.76158
585.76158
585.76158
585.76158
585.76158
585.76158
585.76158
585.76158
227.80796
227.80796
227.80796
227.80796
227.80796
227.80796
227.80796
227.80796
227.80796
227.80796
227.80796
227.80796
227.80796
227.80796
227.80796
227.80796
227.80796
227.80796
227.80796
227.80796
227.80796
227.80796
227.80796
227.80796
227.80796
227.80796
227.80796
227.80796
227.80796
227.80796
227.80796
227.80796
227.80796
227.80796
227.80796
227.80796
227.80796
227.80796
227.80796
227.80796
227.80796
227.80796
227.80796
227.80796
227.80796
227.80796
227.80796
227.80796
227.80796
227.80796
227.80796
227.80796
227.80796
227.80796
227.80796
227.80796
227.80796
227.80796
227.80796
227.80796
227.80796
227.80796
227.80796
227.80796
227.80796
227.80796
227.80796
227.80796
227.80796
227.80796
227.80796
227.80796
227.80796
227.80796
227.80796
227.80796
227.80796
227.80796
227.80796
227.80796
227.80796
227.80796
227.80796
227.80796
227.80796
227.80796
227.80796
227.80796
227.80796
227.80796
227.80796
227.80796
585.76158
585.76158
227.80796
585.76158
585.76158
227.80796
585.76158
227.80796
227.80796
227.80796
227.80796
227.80796
227.80796
227.80796
227.80796
227.80796
227.80796
227.80796
227.80796
227.80796
227.80796
227.80796
585.76158
227.80796
227.80796
227.80796
585.76158
227.80796
585.76158
585.76158
227.80796
227.80796
585.76158
227.80796
585.76158
227.80796
585.76158
585.76158
227.80796
227.80796
585.76158
227.80796
585.76158
227.80796
227.80796
227.80796
227.80796
227.80796
227.80796
227.80796
227.80796
227.80796
227.80796
227.80796
227.80796
227.80796
585.76158
227.80796
227.80796
227.80796
585.76158
585.76158
227.80796
227.80796
227.80796
227.80796
227.80796
227.80796
227.80796
227.80796
227.80796
227.80796
227.80796
227.80796
227.80796
227.80796
227.80796
227.80796
227.80796
227.80796
227.80796
227.80796
227.80796
227.80796
227.80796
227.80796
227.80796
227.80796
227.80796
227.80796
227.80796
227.80796
585.76158
585.76158
585.76158
585.76158
227.80796
227.80796
227.80796
585.76158
585.76158
585.76158
585.76158
585.76158
585.76158
227.80796
227.80796
227.80796
585.76158
585.76158
585.76158
227.80796
227.80796
585.76158
227.80796
227.80796
227.80796
227.80796
585.76158
227.80796
585.76158
585.76158
585.76158
227.80796
585.76158
585.76158
585.76158
227.80796
585.76158
585.76158
585.76158
227.80796
585.76158
585.76158
585.76158
585.76158
227.80796
585.76158
585.76158
585.76158
227.80796
585.76158
585.76158
227.80796
585.76158
585.76158
585.76158
227.80796
585.76158
585.76158
585.76158
227.80796
585.76158
585.76158
585.76158
227.80796
585.76158
585.76158
227.80796
227.80796
227.80796
227.80796
227.80796
227.80796
227.80796
227.80796
227.80796
227.80796
227.80796
227.80796
227.80796
227.80796
227.80796
227.80796
227.80796
227.80796
227.80796
227.80796
227.80796
227.80796
227.80796
227.80796
227.80796
227.80796
227.80796
227.80796
227.80796
227.80796
227.80796
227.80796
227.80796
227.80796
227.80796
227.80796
227.80796
227.80796
227.80796
227.80796
227.80796
227.80796
227.80796
227.80796
227.80796
227.80796
227.80796
227.80796
227.80796
227.80796
227.80796
227.80796
227.80796
227.80796
227.80796
227.80796
227.80796
227.80796
227.80796
227.80796
227.80796
227.80796
227.80796
227.80796
227.80796
227.80796
227.80796
227.80796
585.76158
585.76158
585.76158
585.76158
585.76158
585.76158
585.76158
585.76158
585.76158
585.76158
585.76158
585.76158
585.76158
585.76158
585.76158
585.76158
585.76158
585.76158
585.76158
585.76158
585.76158
585.76158
227.80796
227.80796
227.80796
227.80796
227.80796
227.80796
227.80796
227.80796
227.80796
227.80796
227.80796
227.80796
227.80796
227.80796
227.80796
227.80796
227.80796
227.80796
227.80796
227.80796
227.80796
227.80796
227.80796
227.80796
227.80796
227.80796
227.80796
227.80796
227.80796
227.80796
227.80796
227.80796
227.80796
227.80796
227.80796
227.80796
227.80796
227.80796
227.80796
227.80796
227.80796
227.80796
227.80796
227.80796
227.80796
227.80796
227.80796
227.80796
227.80796
227.80796
227.80796
227.80796
227.80796
227.80796
227.80796
585.76158
227.80796
585.76158
585.76158
227.80796
585.76158
585.76158
227.80796
585.76158
585.76158
227.80796
585.76158
585.76158
227.80796
585.76158
585.76158
227.80796
585.76158
585.76158
227.80796
585.76158
585.76158
227.80796
585.76158
585.76158
227.80796
585.76158
585.76158
227.80796
585.76158
227.80796
227.80796
227.80796
227.80796
227.80796
227.80796
227.80796
227.80796
227.80796
227.80796
227.80796
227.80796
227.80796
227.80796
227.80796
227.80796
227.80796
227.80796
227.80796
227.80796
227.80796
227.80796
227.80796
227.80796
227.80796
227.80796
227.80796
227.80796
227.80796
227.80796
227.80796
585.76158
585.76158
585.76158
585.76158
585.76158
585.76158
585.76158
585.76158
585.76158
585.76158
227.80796
227.80796
227.80796
227.80796
227.80796
227.80796
227.80796
227.80796
227.80796
227.80796
227.80796
227.80796
227.80796
227.80796
227.80796
227.80796
227.80796
227.80796
227.80796
227.80796
227.80796
227.80796
227.80796
227.80796
227.80796
227.80796
288.91863
0
0
0
0
0
240.99238
0
137.63952
0
0
0
0
166.19732
217.70434
208.30966
372.0164
67.823937
580.31432
495.67645
621.55996
237.29256
399.7653
146.34824
34.690408
0
0
0
0
0
0
0
106.65147
137.79192
0
0
0
0
0
0
0
0
0
0
0
0.77255577
0
14.396112
196.43147
216.94668
187.65807
0
0
0
72.118063
125.85572
37.392575
182.64298
151.28541
58.351224
100.66278
328.45913
554.00053
535.39729
465.72642
286.41165
339.35666
0
0
0
0
0
424.02264
334.4625
440.82561
76.509955
82.308122
88.440913
42.607756
0
4.9122964
0
0
0
0
0
0
0
0
0
190.45644
120.18787
3.4421474
95.325239
0
32.361391
0
0
0
0
0
0
0
94.024969
205.18956
254.28437
147.90667
257.1944
319.00647
561.4727
603.65619
630.69266
371.64013
356.27929
507.10437
300.59731
372.41068
384.08806
424.89164
556.1944
252.11848
534.31847
601.72713
597.28516
631.52779
584.00933
606.76938
644.37196
261.19452
286.50029
446.72199
447.10795
347.43128
422.41531
0
292.61223
296.43771
327.39877
95.788201
126.68203
112.60777
78.554795
19.149651
303.25379
256.46939
42.641453
106.76296
86.201331
338.54398
387.60651
77.675601
96.786787
232.90045
325.805
181.89347
205.35911
0
0
0
0
0
0
75.048966
0
0
0
0
0
49.271479
562.83444
519.79139
0
0
0
0
0
0
0
0
0
0
0
0
0
0
0
0
0
0
0
5.7485501
0
0
0
0
0
0
138.20255
194.03654
500.12095
555.50773
155.06811
348.47867
397.5634
0
96.601359
0
0
0
0
254.16817
405.82989
451.97187
425.32964
438.42514
131.01723
279.85472
249.83768
0
0
0
0
0
0
0
0
0
0
0
0
0
0
0
181.22403
80.209764
0
0
333.17107
364.31792
292.43188
54.012601
0
59.44163
0
70.521253
127.61668
189.82976
167.78608
145.82705
64.34641
0
0
0
0
0
0
0
0
0
0
494.33659
550.37789
386.25251
488.1221
320.70306
0
0
58.067034
0
0
0
0
0
0
0
0
0
0
0
0
0
0
0
0
142.4559
0
55.32796
92.345314
0
0
0
0
0
0
0
0
0
0
0
0
0
0
0
197.37688
198.71418
19.153268
12.315447
160.21135
66.401822
313.32846
256.9429
537.47505
466.95719
489.96653
159.96258
150.39632
95.284583
465.90627
199.07827
136.43667
449.96845
570.79319
433.9288
519.18849
480.99967
624.4991
310.01161
391.51387
381.89847
372.4472
0
0
0
112.10452
142.39739
190.84072
126.56068
148.91905
132.46299
0
0
0
222.24827
219.82008
155.84043
58.226736
215.51317
238.85369
315.06253
250.26495
213.16371
264.00509
201.81426
261.93433
369.13966
371.36723
394.24226
437.58429
284.79316
314.04997
405.66035
37.740181
64.119082
92.528833
61.431182
4.8804631
7.6312282
20.284239
67.619347
35.1624
137.40798
39.041373
398.3296
165.97319
0
0
0
0
0
0
0
0
0
628.94015
520.53182
)


1074
(
536.2201
536.2201
536.2201
536.2201
536.2201
91.084825
91.084825
536.2201
536.2201
536.2201
91.084825
536.2201
91.084825
536.2201
536.2201
536.2201
536.2201
245.64987
112.34155
536.2201
536.2201
536.2201
536.2201
337.45504
536.2201
536.2201
536.2201
337.45504
536.2201
112.34155
536.2201
536.2201
536.2201
330.19022
536.2201
536.2201
536.2201
536.2201
536.2201
133.72693
87.098661
87.098661
215.64358
113.75648
133.72693
536.2201
536.2201
536.2201
536.2201
536.2201
536.2201
536.2201
536.2201
536.2201
536.2201
184.52988
536.2201
536.2201
536.2201
536.2201
184.52988
536.2201
536.2201
536.2201
140.67848
140.67848
536.2201
242.93785
536.2201
536.2201
536.2201
536.2201
536.2201
536.2201
536.2201
536.2201
536.2201
536.2201
536.2201
536.2201
536.2201
536.2201
536.2201
536.2201
536.2201
184.52988
242.93785
242.93785
536.2201
536.2201
536.2201
536.2201
536.2201
536.2201
536.2201
536.2201
536.2201
225.08437
225.08437
184.52988
536.2201
536.2201
293.82798
361.35583
361.35583
536.2201
536.2201
245.64987
91.084825
536.2201
536.2201
536.2201
536.2201
536.2201
536.2201
536.2201
87.098661
87.098661
112.34155
536.2201
536.2201
536.2201
245.64987
140.67848
140.67848
536.2201
536.2201
536.2201
245.64987
91.084825
536.2201
536.2201
536.2201
536.2201
337.45504
87.098661
337.45504
226.12786
226.12786
226.12786
112.34155
113.75648
215.64358
536.2201
536.2201
536.2201
304.24413
536.2201
330.19022
225.08437
225.08437
536.2201
536.2201
536.2201
536.2201
536.2201
536.2201
133.72693
87.098661
133.72693
113.75648
113.75648
133.72693
536.2201
536.2201
536.2201
536.2201
536.2201
536.2201
536.2201
536.2201
536.2201
536.2201
536.2201
536.2201
536.2201
536.2201
536.2201
536.2201
536.2201
536.2201
536.2201
536.2201
536.2201
536.2201
536.2201
536.2201
536.2201
536.2201
536.2201
536.2201
536.2201
536.2201
536.2201
536.2201
536.2201
536.2201
381.92334
133.5472
108.24519
381.92334
381.92334
381.92334
381.92334
381.92334
128.58021
381.92334
381.92334
145.44619
381.92334
381.92334
381.92334
194.246
164.86303
163.84743
101.45227
381.92334
381.92334
381.92334
381.92334
381.92334
381.92334
381.92334
381.92334
381.92334
381.92334
200.98241
202.36672
381.92334
381.92334
170.74222
114.18243
170.70795
176.01122
381.92334
381.92334
381.92334
381.92334
381.92334
381.92334
381.92334
381.92334
381.92334
381.92334
381.92334
381.92334
381.92334
381.92334
381.92334
381.92334
381.92334
139.86707
381.92334
381.92334
381.92334
381.92334
381.92334
381.92334
381.92334
381.92334
381.92334
146.04569
154.75337
160.05472
381.92334
381.92334
381.92334
381.92334
381.92334
381.92334
381.92334
381.92334
381.92334
381.92334
381.92334
381.92334
381.92334
381.92334
381.92334
381.92334
381.92334
381.92334
381.92334
381.92334
381.92334
381.92334
381.92334
381.92334
381.92334
536.2201
536.2201
381.92334
536.2201
536.2201
381.92334
536.2201
381.92334
381.92334
381.92334
381.92334
190.23972
381.92334
381.92334
381.92334
381.92334
381.92334
381.92334
381.92334
381.92334
381.92334
381.92334
536.2201
381.92334
381.92334
381.92334
536.2201
381.92334
536.2201
536.2201
381.92334
381.92334
536.2201
381.92334
536.2201
381.92334
536.2201
536.2201
381.92334
381.92334
536.2201
381.92334
536.2201
381.92334
381.92334
381.92334
381.92334
381.92334
381.92334
381.92334
381.92334
381.92334
381.92334
381.92334
381.92334
381.92334
536.2201
381.92334
381.92334
381.92334
536.2201
536.2201
381.92334
381.92334
381.92334
381.92334
381.92334
381.92334
381.92334
381.92334
381.92334
381.92334
381.92334
381.92334
381.92334
381.92334
381.92334
381.92334
381.92334
381.92334
381.92334
381.92334
381.92334
381.92334
381.92334
381.92334
381.92334
381.92334
381.92334
381.92334
381.92334
381.92334
536.2201
536.2201
536.2201
536.2201
381.92334
381.92334
381.92334
536.2201
536.2201
536.2201
536.2201
536.2201
536.2201
381.92334
381.92334
381.92334
536.2201
536.2201
536.2201
381.92334
381.92334
536.2201
381.92334
381.92334
381.92334
381.92334
536.2201
381.92334
536.2201
536.2201
536.2201
381.92334
536.2201
536.2201
536.2201
381.92334
536.2201
536.2201
536.2201
381.92334
536.2201
536.2201
536.2201
536.2201
381.92334
536.2201
536.2201
536.2201
381.92334
536.2201
536.2201
381.92334
536.2201
536.2201
536.2201
381.92334
536.2201
536.2201
536.2201
381.92334
536.2201
536.2201
536.2201
381.92334
536.2201
536.2201
381.92334
381.92334
381.92334
381.92334
381.92334
381.92334
381.92334
381.92334
381.92334
381.92334
381.92334
381.92334
381.92334
381.92334
165.88114
175.57045
381.92334
381.92334
381.92334
381.92334
381.92334
381.92334
381.92334
381.92334
381.92334
381.92334
381.92334
381.92334
381.92334
381.92334
381.92334
381.92334
381.92334
381.92334
381.92334
381.92334
381.92334
381.92334
381.92334
381.92334
381.92334
381.92334
381.92334
381.92334
381.92334
381.92334
381.92334
381.92334
381.92334
381.92334
381.92334
381.92334
381.92334
381.92334
381.92334
381.92334
381.92334
381.92334
381.92334
381.92334
381.92334
381.92334
381.92334
381.92334
381.92334
381.92334
381.92334
381.92334
536.2201
536.2201
536.2201
536.2201
536.2201
536.2201
536.2201
536.2201
536.2201
536.2201
536.2201
536.2201
536.2201
536.2201
536.2201
536.2201
536.2201
536.2201
536.2201
536.2201
536.2201
536.2201
381.92334
381.92334
381.92334
381.92334
381.92334
381.92334
381.92334
381.92334
381.92334
381.92334
381.92334
381.92334
381.92334
381.92334
381.92334
381.92334
381.92334
381.92334
381.92334
381.92334
381.92334
381.92334
381.92334
381.92334
381.92334
381.92334
381.92334
381.92334
381.92334
381.92334
381.92334
381.92334
381.92334
381.92334
381.92334
381.92334
381.92334
381.92334
381.92334
381.92334
381.92334
381.92334
381.92334
381.92334
381.92334
381.92334
381.92334
381.92334
381.92334
381.92334
381.92334
381.92334
381.92334
381.92334
381.92334
536.2201
381.92334
536.2201
536.2201
381.92334
536.2201
536.2201
381.92334
536.2201
536.2201
381.92334
536.2201
536.2201
381.92334
536.2201
536.2201
381.92334
536.2201
536.2201
381.92334
536.2201
536.2201
381.92334
536.2201
536.2201
381.92334
536.2201
536.2201
381.92334
536.2201
381.92334
381.92334
381.92334
381.92334
381.92334
381.92334
381.92334
381.92334
381.92334
381.92334
381.92334
381.92334
381.92334
381.92334
381.92334
381.92334
381.92334
381.92334
381.92334
381.92334
381.92334
381.92334
381.92334
381.92334
381.92334
381.92334
381.92334
381.92334
381.92334
381.92334
381.92334
536.2201
536.2201
536.2201
536.2201
536.2201
536.2201
536.2201
536.2201
536.2201
536.2201
381.92334
381.92334
381.92334
381.92334
381.92334
381.92334
381.92334
381.92334
381.92334
381.92334
381.92334
381.92334
381.92334
381.92334
381.92334
381.92334
381.92334
381.92334
381.92334
381.92334
381.92334
381.92334
381.92334
381.92334
381.92334
381.92334
412.56569
0
0
0
0
0
320.31064
0
300.32618
103.85663
0
0
0
324.64169
92.764748
365.91111
506.96958
30.315984
577.80046
403.48336
607.42851
390.61687
530.62743
0
0
0
0
0
0
0
0
0
0
0
0
0
0
0
0
0
0
0
0
0
0
154.73269
122.63364
171.10492
310.57333
346.9215
299.16344
0
178.93321
0
0
22.103348
0
325.12882
307.2904
196.53946
232.07138
291.73282
473.07258
452.85195
351.22593
410.21645
414.64887
0
94.837622
0
0
0
523.09633
411.73801
559.78303
58.516155
243.68537
253.31673
110.26083
87.048181
170.91335
0
0
37.067753
0
0
0
0
0
0
340.72743
280.69726
133.80953
206.02249
106.50385
194.29353
0
0
0
0
0
24.674096
114.32516
0
342.9101
380.30745
304.05577
409.76981
463.1446
643.43781
657.8831
670.37992
331.03417
257.50351
446.79667
224.99659
369.64823
418.45327
412.9479
528.36252
300.12693
456.81383
548.36968
581.94591
620.75662
532.97586
574.31997
626.70271
406.36346
434.77082
527.83937
549.09776
487.4631
545.52033
0
260.52751
271.45218
390.12845
0
0
0
0
0
189.82074
157.45725
0
25.617926
0
207.74624
254.19766
0
0
78.269779
193.12468
22.999648
47.931694
0
0
0
0
0
0
167.66518
25.310672
59.023929
0
0
6.2049501
86.194249
629.47763
577.01219
0
0
0
189.90075
0
0
142.57074
0
0
0
0
0
0
0
0
0
0
1.0668673
55.164591
107.92128
0
159.97245
0
0
87.79951
65.095564
222.87019
304.98559
518.71934
580.9623
205.8986
245.0783
283.17401
0
153.58582
0
0
0
7.6183949
153.32234
390.2486
433.23482
442.49786
492.1033
0
149.16598
107.15036
42.295434
0
0
0
0
0
0
0
0
0
0
0
0
0
0
316.17853
213.18632
172.96766
0
453.30192
464.26929
375.7915
0
0
0
0
13.192564
53.299859
122.70804
89.275372
82.267288
0
0
0
124.80428
115.78294
0
0
0
0
0
0
592.02585
608.74128
500.93204
545.09574
424.5267
30.617162
33.653151
221.75339
48.979713
93.643618
8.1533695
80.928805
0
30.462034
57.971187
0
0
0
0
0
0
0
0
0
294.62636
124.51394
209.47916
175.33649
0
0
0
0
0
0
0
0
0
0
0
0
102.23725
99.391047
146.34743
95.241827
350.23854
145.4508
111.2481
278.08696
190.16601
446.63591
402.33508
629.4928
582.30531
597.44321
101.26247
137.93954
89.969641
494.10416
218.29098
163.25372
329.40172
494.9043
356.37417
504.53783
435.36909
580.73059
450.17122
485.63729
498.17406
504.02443
0
0
0
95.600902
132.24423
229.39251
115.62984
192.35434
113.84543
0
0
31.70974
293.81299
305.22162
238.0315
106.44052
121.09553
170.76317
242.64314
221.44327
197.13828
296.99477
176.81179
241.6694
330.85026
394.42749
318.77257
393.67268
348.9512
342.14827
466.01731
0
0
0
0
0
0
0
0
0
0
0
266.36805
12.803861
0
0
0
0
0
0
58.166095
9.5509518
18.063572
652.87191
603.63491
)


1074
(
128.32324
128.32324
128.32324
128.32324
411.8157
106.75201
106.75201
411.8157
0
411.8157
106.75201
411.8157
106.75201
134.84768
411.8157
0
411.8157
411.8157
73.001474
411.8157
411.8157
411.8157
411.8157
411.8157
411.8157
134.84768
411.8157
411.8157
411.8157
73.001474
411.8157
0
411.8157
411.8157
411.8157
0
409.11952
411.8157
0
158.07751
125.30278
125.30278
202.94291
121.35118
158.07751
0
0
309.9502
0
411.8157
411.8157
411.8157
0
0
0
0
0
0
0
0
0
309.9502
411.8157
411.8157
411.8157
411.8157
411.8157
411.8157
0
0
411.8157
411.8157
411.8157
0
0
0
0
0
349.13726
0
0
0
0
0
0
0
0
411.8157
0
0
0
0
0
0
0
0
0
411.8157
0
0
411.8157
411.8157
170.20261
0
0
0
411.8157
285.6299
106.75201
411.8157
0
0
0
411.8157
411.8157
411.8157
125.30278
125.30278
73.001474
411.8157
411.8157
411.8157
411.8157
411.8157
278.21589
134.84768
411.8157
411.8157
411.8157
106.75201
411.8157
411.8157
411.8157
411.8157
349.87817
125.30278
349.87817
411.8157
224.04826
224.04826
73.001474
121.35118
202.94291
411.8157
411.8157
411.8157
134.84768
411.8157
231.00474
0
411.8157
409.11952
0
0
0
0
411.8157
158.07751
125.30278
158.07751
121.35118
121.35118
158.07751
0
0
0
0
0
0
309.9502
0
0
0
0
0
0
0
0
0
0