/*--------------------------------*- C++ -*----------------------------------*\
  =========                 |
  \\      /  F ield         | OpenFOAM: The Open Source CFD Toolbox
   \\    /   O peration     | Website:  https://openfoam.org
    \\  /    A nd           | Version:  8
     \\/     M anipulation  |
\*---------------------------------------------------------------------------*/
/*   Windows 32 and 64 bit porting by blueCAPE: http://www.bluecape.com.pt   *\
|  Based on Windows porting (2.0.x v4) by Symscape: http://www.symscape.com   |
\*---------------------------------------------------------------------------*/
FoamFile
{
    version     2.0;
    format      ascii;
    class       scalarListList;
    location    "constant/vegetation";
    object      sunViewCoeff;
}
// * * * * * * * * * * * * * * * * * * * * * * * * * * * * * * * * * * * * * //


5
(

544
(
717.08284
717.08284
717.08284
717.08284
717.08284
717.08284
717.08284
717.08284
717.08284
717.08284
717.08284
717.08284
333.62868
611.74809
717.08284
717.08284
91.368673
717.08284
146.3227
503.41502
717.08284
640.19757
717.08284
161.61765
556.03168
717.08284
613.65374
356.25504
101.82487
152.82391
105.75012
717.08284
598.94349
143.0553
469.59191
717.08284
717.08284
717.08284
88.010865
717.08284
0
0
0
80.639504
80.639504
80.639504
80.639504
80.639504
80.639504
80.639504
80.639504
80.639504
80.639504
80.639504
80.639504
80.639504
80.639504
80.639504
80.639504
80.639504
80.639504
80.639504
80.639504
80.639504
80.639504
80.639504
80.639504
80.639504
80.639504
80.639504
80.639504
80.639504
80.639504
80.639504
80.639504
80.639504
80.639504
80.639504
80.639504
80.639504
80.639504
80.639504
80.639504
80.639504
80.639504
80.639504
80.639504
80.639504
80.639504
80.639504
80.639504
80.639504
80.639504
80.639504
80.639504
80.639504
80.639504
80.639504
80.639504
80.639504
80.639504
80.639504
80.639504
80.639504
80.639504
80.639504
80.639504
80.639504
80.639504
80.639504
80.639504
80.639504
80.639504
80.639504
80.639504
80.639504
80.639504
80.639504
80.639504
80.639504
80.639504
80.639504
80.639504
80.639504
80.639504
80.639504
80.639504
80.639504
80.639504
80.639504
80.639504
80.639504
80.639504
80.639504
80.639504
717.08284
717.08284
80.639504
717.08284
717.08284
80.639504
717.08284
80.639504
80.639504
80.639504
80.639504
80.639504
80.639504
80.639504
80.639504
80.639504
80.639504
80.639504
80.639504
80.639504
80.639504
80.639504
717.08284
80.639504
80.639504
80.639504
717.08284
80.639504
717.08284
717.08284
80.639504
80.639504
717.08284
80.639504
717.08284
80.639504
717.08284
717.08284
80.639504
80.639504
717.08284
80.639504
717.08284
80.639504
80.639504
80.639504
80.639504
80.639504
80.639504
80.639504
80.639504
80.639504
80.639504
80.639504
80.639504
80.639504
717.08284
80.639504
80.639504
80.639504
717.08284
717.08284
80.639504
80.639504
80.639504
80.639504
80.639504
80.639504
80.639504
80.639504
80.639504
80.639504
80.639504
80.639504
80.639504
80.639504
80.639504
80.639504
80.639504
80.639504
80.639504
80.639504
80.639504
80.639504
80.639504
80.639504
80.639504
80.639504
80.639504
80.639504
80.639504
80.639504
717.08284
717.08284
717.08284
717.08284
80.639504
80.639504
80.639504
717.08284
717.08284
717.08284
717.08284
717.08284
717.08284
80.639504
80.639504
80.639504
717.08284
717.08284
717.08284
80.639504
80.639504
717.08284
80.639504
80.639504
80.639504
80.639504
717.08284
80.639504
717.08284
717.08284
717.08284
80.639504
717.08284
717.08284
717.08284
80.639504
717.08284
717.08284
717.08284
80.639504
717.08284
717.08284
717.08284
717.08284
80.639504
717.08284
717.08284
717.08284
80.639504
717.08284
717.08284
80.639504
717.08284
717.08284
717.08284
80.639504
717.08284
717.08284
717.08284
80.639504
717.08284
717.08284
717.08284
80.639504
717.08284
717.08284
80.639504
80.639504
80.639504
80.639504
80.639504
80.639504
80.639504
80.639504
80.639504
80.639504
80.639504
80.639504
80.639504
80.639504
80.639504
80.639504
80.639504
80.639504
80.639504
80.639504
80.639504
80.639504
80.639504
80.639504
80.639504
80.639504
80.639504
80.639504
80.639504
80.639504
80.639504
80.639504
80.639504
80.639504
80.639504
80.639504
80.639504
80.639504
80.639504
80.639504
80.639504
80.639504
80.639504
80.639504
80.639504
80.639504
80.639504
80.639504
80.639504
80.639504
80.639504
80.639504
80.639504
80.639504
80.639504
80.639504
80.639504
80.639504
80.639504
80.639504
80.639504
80.639504
80.639504
80.639504
80.639504
80.639504
80.639504
80.639504
717.08284
717.08284
717.08284
717.08284
717.08284
717.08284
717.08284
717.08284
717.08284
717.08284
717.08284
717.08284
717.08284
717.08284
717.08284
717.08284
717.08284
717.08284
717.08284
717.08284
717.08284
717.08284
80.639504
80.639504
80.639504
80.639504
80.639504
80.639504
80.639504
80.639504
80.639504
80.639504
80.639504
80.639504
80.639504
80.639504
80.639504
80.639504
80.639504
80.639504
80.639504
80.639504
80.639504
80.639504
80.639504
80.639504
80.639504
80.639504
80.639504
80.639504
80.639504
80.639504
80.639504
80.639504
80.639504
80.639504
80.639504
80.639504
80.639504
80.639504
80.639504
80.639504
80.639504
80.639504
80.639504
80.639504
80.639504
80.639504
80.639504
80.639504
80.639504
80.639504
80.639504
80.639504
80.639504
80.639504
80.639504
717.08284
80.639504
717.08284
717.08284
80.639504
717.08284
717.08284
80.639504
717.08284
717.08284
80.639504
717.08284
717.08284
80.639504
717.08284
717.08284
80.639504
717.08284
717.08284
80.639504
717.08284
717.08284
80.639504
717.08284
717.08284
80.639504
717.08284
717.08284
80.639504
717.08284
80.639504
80.639504
80.639504
80.639504
80.639504
80.639504
80.639504
80.639504
80.639504
80.639504
80.639504
80.639504
80.639504
80.639504
80.639504
80.639504
80.639504
80.639504
80.639504
80.639504
80.639504
80.639504
80.639504
80.639504
80.639504
80.639504
80.639504
80.639504
80.639504
80.639504
80.639504
717.08284
717.08284
717.08284
717.08284
717.08284
717.08284
717.08284
717.08284
717.08284
717.08284
80.639504
80.639504
80.639504
80.639504
80.639504
80.639504
80.639504
80.639504
80.639504
80.639504
80.639504
80.639504
80.639504
80.639504
80.639504
80.639504
80.639504
80.639504
80.639504
80.639504
80.639504
80.639504
80.639504
80.639504
80.639504
80.639504
19.482344
0
38.39216
39.313421
524.96143
41.573379
25.638946
320.02623
503.77287
)


544
(
585.76158
585.76158
393.6041
585.76158
585.76158
585.76158
585.76158
585.76158
517.70565
585.76158
585.76158
585.76158
284.41468
392.23702
585.76158
585.76158
168.66715
585.76158
97.792878
89.72597
585.76158
140.02885
585.76158
585.76158
585.76158
585.76158
585.76158
585.76158
117.75306
363.10394
234.88651
585.76158
281.55565
172.76999
537.21835
585.76158
585.76158
585.76158
98.074574
585.76158
0
0
0
227.80796
227.80796
227.80796
227.80796
227.80796
227.80796
227.80796
227.80796
227.80796
227.80796
227.80796
227.80796
227.80796
227.80796
227.80796
227.80796
227.80796
227.80796
227.80796
227.80796
227.80796
227.80796
227.80796
227.80796
227.80796
227.80796
227.80796
227.80796
227.80796
227.80796
227.80796
227.80796
227.80796
227.80796
227.80796
227.80796
227.80796
227.80796
227.80796
227.80796
227.80796
227.80796
227.80796
227.80796
227.80796
227.80796
227.80796
227.80796
227.80796
227.80796
227.80796
227.80796
227.80796
227.80796
227.80796
227.80796
227.80796
227.80796
227.80796
227.80796
227.80796
227.80796
227.80796
227.80796
227.80796
227.80796
227.80796
227.80796
227.80796
227.80796
227.80796
227.80796
227.80796
227.80796
227.80796
227.80796
227.80796
227.80796
227.80796
227.80796
227.80796
227.80796
227.80796
227.80796
227.80796
227.80796
227.80796
227.80796
227.80796
227.80796
227.80796
227.80796
585.76158
585.76158
227.80796
585.76158
585.76158
227.80796
585.76158
227.80796
227.80796
227.80796
227.80796
227.80796
227.80796
227.80796
227.80796
227.80796
227.80796
227.80796
227.80796
227.80796
227.80796
227.80796
585.76158
227.80796
227.80796
227.80796
585.76158
227.80796
585.76158
585.76158
227.80796
227.80796
585.76158
227.80796
585.76158
227.80796
585.76158
585.76158
227.80796
227.80796
585.76158
227.80796
585.76158
227.80796
227.80796
227.80796
227.80796
227.80796
227.80796
227.80796
227.80796
227.80796
227.80796
227.80796
227.80796
227.80796
585.76158
227.80796
227.80796
227.80796
585.76158
585.76158
227.80796
227.80796
227.80796
227.80796
227.80796
227.80796
227.80796
227.80796
227.80796
227.80796
227.80796
227.80796
227.80796
227.80796
227.80796
227.80796
227.80796
227.80796
227.80796
227.80796
227.80796
227.80796
227.80796
227.80796
227.80796
227.80796
227.80796
227.80796
227.80796
227.80796
585.76158
585.76158
585.76158
585.76158
227.80796
227.80796
227.80796
585.76158
585.76158
585.76158
585.76158
585.76158
585.76158
227.80796
227.80796
227.80796
585.76158
585.76158
585.76158
227.80796
227.80796
585.76158
227.80796
227.80796
227.80796
227.80796
585.76158
227.80796
585.76158
585.76158
585.76158
227.80796
585.76158
585.76158
585.76158
227.80796
585.76158
585.76158
585.76158
227.80796
585.76158
585.76158
585.76158
585.76158
227.80796
585.76158
585.76158
585.76158
227.80796
585.76158
585.76158
227.80796
585.76158
585.76158
585.76158
227.80796
585.76158
585.76158
585.76158
227.80796
585.76158
585.76158
585.76158
227.80796
585.76158
585.76158
227.80796
227.80796
227.80796
227.80796
227.80796
227.80796
227.80796
227.80796
227.80796
227.80796
227.80796
227.80796
227.80796
227.80796
227.80796
227.80796
227.80796
227.80796
227.80796
227.80796
227.80796
227.80796
227.80796
227.80796
227.80796
227.80796
227.80796
227.80796
227.80796
227.80796
227.80796
227.80796
227.80796
227.80796
227.80796
227.80796
227.80796
227.80796
227.80796
227.80796
227.80796
227.80796
227.80796
227.80796
227.80796
227.80796
227.80796
227.80796
227.80796
227.80796
227.80796
227.80796
227.80796
227.80796
227.80796
227.80796
227.80796
227.80796
227.80796
227.80796
227.80796
227.80796
227.80796
227.80796
227.80796
227.80796
227.80796
227.80796
585.76158
585.76158
585.76158
585.76158
585.76158
585.76158
585.76158
585.76158
585.76158
585.76158
585.76158
585.76158
585.76158
585.76158
585.76158
585.76158
585.76158
585.76158
585.76158
585.76158
585.76158
585.76158
227.80796
227.80796
227.80796
227.80796
227.80796
227.80796
227.80796
227.80796
227.80796
227.80796
227.80796
227.80796
227.80796
227.80796
227.80796
227.80796
227.80796
227.80796
227.80796
227.80796
227.80796
227.80796
227.80796
227.80796
227.80796
227.80796
227.80796
227.80796
227.80796
227.80796
227.80796
227.80796
227.80796
227.80796
227.80796
227.80796
227.80796
227.80796
227.80796
227.80796
227.80796
227.80796
227.80796
227.80796
227.80796
227.80796
227.80796
227.80796
227.80796
227.80796
227.80796
227.80796
227.80796
227.80796
227.80796
585.76158
227.80796
585.76158
585.76158
227.80796
585.76158
585.76158
227.80796
585.76158
585.76158
227.80796
585.76158
585.76158
227.80796
585.76158
585.76158
227.80796
585.76158
585.76158
227.80796
585.76158
585.76158
227.80796
585.76158
585.76158
227.80796
585.76158
585.76158
227.80796
585.76158
227.80796
227.80796
227.80796
227.80796
227.80796
227.80796
227.80796
227.80796
227.80796
227.80796
227.80796
227.80796
227.80796
227.80796
227.80796
227.80796
227.80796
227.80796
227.80796
227.80796
227.80796
227.80796
227.80796
227.80796
227.80796
227.80796
227.80796
227.80796
227.80796
227.80796
227.80796
585.76158
585.76158
585.76158
585.76158
585.76158
585.76158
585.76158
585.76158
585.76158
585.76158
227.80796
227.80796
227.80796
227.80796
227.80796
227.80796
227.80796
227.80796
227.80796
227.80796
227.80796
227.80796
227.80796
227.80796
227.80796
227.80796
227.80796
227.80796
227.80796
227.80796
227.80796
227.80796
227.80796
227.80796
227.80796
227.80796
178.75563
0
28.634097
40.349144
532.99666
22.482586
58.900249
119.18192
472.16678
)


544
(
536.2201
536.2201
91.084825
536.2201
518.46017
536.2201
536.2201
380.46256
112.34155
536.2201
536.2201
536.2201
444.61079
303.31745
536.2201
536.2201
502.14138
536.2201
133.72693
87.098661
376.41687
113.75648
536.2201
536.2201
536.2201
536.2201
536.2201
536.2201
184.52988
536.2201
536.2201
475.77519
272.14879
315.92668
536.2201
466.24262
536.2201
536.2201
328.40526
536.2201
0
0
0
381.92334
133.5472
108.24519
381.92334
381.92334
381.92334
381.92334
381.92334
128.58021
381.92334
381.92334
145.44619
381.92334
381.92334
381.92334
194.246
164.86303
163.84743
101.45227
381.92334
381.92334
381.92334
381.92334
381.92334
381.92334
381.92334
381.92334
381.92334
381.92334
200.98241
202.36672
381.92334
381.92334
170.74222
114.18243
170.70795
176.01122
381.92334
381.92334
381.92334
381.92334
381.92334
381.92334
381.92334
381.92334
381.92334
381.92334
381.92334
381.92334
381.92334
381.92334
381.92334
381.92334
381.92334
139.86707
381.92334
381.92334
381.92334
381.92334
381.92334
381.92334
381.92334
381.92334
381.92334
146.04569
154.75337
160.05472
381.92334
381.92334
381.92334
381.92334
381.92334
381.92334
381.92334
381.92334
381.92334
381.92334
381.92334
381.92334
381.92334
381.92334
381.92334
381.92334
381.92334
381.92334
381.92334
381.92334
381.92334
381.92334
381.92334
381.92334
381.92334
536.2201
536.2201
381.92334
536.2201
536.2201
381.92334
536.2201
381.92334
381.92334
381.92334
381.92334
190.23972
381.92334
381.92334
381.92334
381.92334
381.92334
381.92334
381.92334
381.92334
381.92334
381.92334
536.2201
381.92334
381.92334
381.92334
536.2201
381.92334
536.2201
536.2201
381.92334
381.92334
536.2201
381.92334
536.2201
381.92334
536.2201
536.2201
381.92334
381.92334
536.2201
381.92334
536.2201
381.92334
381.92334
381.92334
381.92334
381.92334
381.92334
381.92334
381.92334
381.92334
381.92334
381.92334
381.92334
381.92334
536.2201
381.92334
381.92334
381.92334
536.2201
536.2201
381.92334
381.92334
381.92334
381.92334
381.92334
381.92334
381.92334
381.92334
381.92334
381.92334
381.92334
381.92334
381.92334
381.92334
381.92334
381.92334
381.92334
381.92334
381.92334
381.92334
381.92334
381.92334
381.92334
381.92334
381.92334
381.92334
381.92334
381.92334
381.92334
381.92334
536.2201
536.2201
536.2201
536.2201
381.92334
381.92334
381.92334
536.2201
536.2201
536.2201
536.2201
536.2201
536.2201
381.92334
381.92334
381.92334
536.2201
536.2201
536.2201
381.92334
381.92334
536.2201
381.92334
381.92334
381.92334
381.92334
536.2201
381.92334
536.2201
536.2201
536.2201
381.92334
536.2201
536.2201
536.2201
381.92334
536.2201
536.2201
536.2201
381.92334
536.2201
536.2201
536.2201
536.2201
381.92334
536.2201
536.2201
536.2201
381.92334
536.2201
536.2201
381.92334
536.2201
536.2201
536.2201
381.92334
536.2201
536.2201
536.2201
381.92334
536.2201
536.2201
536.2201
381.92334
536.2201
536.2201
381.92334
381.92334
381.92334
381.92334
381.92334
381.92334
381.92334
381.92334
381.92334
381.92334
381.92334
381.92334
381.92334
381.92334
165.88114
175.57045
381.92334
381.92334
381.92334
381.92334
381.92334
381.92334
381.92334
381.92334
381.92334
381.92334
381.92334
381.92334
381.92334
381.92334
381.92334
381.92334
381.92334
381.92334
381.92334
381.92334
381.92334
381.92334
381.92334
381.92334
381.92334
381.92334
381.92334
381.92334
381.92334
381.92334
381.92334
381.92334
381.92334
381.92334
381.92334
381.92334
381.92334
381.92334
381.92334
381.92334
381.92334
381.92334
381.92334
381.92334
381.92334
381.92334
381.92334
381.92334
381.92334
381.92334
381.92334
381.92334
536.2201
536.2201
536.2201
536.2201
536.2201
536.2201
536.2201
536.2201
536.2201
536.2201
536.2201
536.2201
536.2201
536.2201
536.2201
536.2201
536.2201
536.2201
536.2201
536.2201
536.2201
536.2201
381.92334
381.92334
381.92334
381.92334
381.92334
381.92334
381.92334
381.92334
381.92334
381.92334
381.92334
381.92334
381.92334
381.92334
381.92334
381.92334
381.92334
381.92334
381.92334
381.92334
381.92334
381.92334
381.92334
381.92334
381.92334
381.92334
381.92334
381.92334
381.92334
381.92334
381.92334
381.92334
381.92334
381.92334
381.92334
381.92334
381.92334
381.92334
381.92334
381.92334
381.92334
381.92334
381.92334
381.92334
381.92334
381.92334
381.92334
381.92334
381.92334
381.92334
381.92334
381.92334
381.92334
381.92334
381.92334
536.2201
381.92334
536.2201
536.2201
381.92334
536.2201
536.2201
381.92334
536.2201
536.2201
381.92334
536.2201
536.2201
381.92334
536.2201
536.2201
381.92334
536.2201
536.2201
381.92334
536.2201
536.2201
381.92334
536.2201
536.2201
381.92334
536.2201
536.2201
381.92334
536.2201
381.92334
381.92334
381.92334
381.92334
381.92334
381.92334
381.92334
381.92334
381.92334
381.92334
381.92334
381.92334
381.92334
381.92334
381.92334
381.92334
381.92334
381.92334
381.92334
381.92334
381.92334
381.92334
381.92334
381.92334
381.92334
381.92334
381.92334
381.92334
381.92334
381.92334
381.92334
536.2201
536.2201
536.2201
536.2201
536.2201
536.2201
536.2201
536.2201
536.2201
536.2201
381.92334
381.92334
381.92334
381.92334
381.92334
381.92334
381.92334
381.92334
381.92334
381.92334
381.92334
381.92334
381.92334
381.92334
381.92334
381.92334
381.92334
381.92334
381.92334
381.92334
381.92334
381.92334
381.92334
381.92334
381.92334
381.92334
340.41835
0
45.981037
57.605126
599.68288
40.939695
121.03327
14.539156
484.49199
)


544
(
128.32324
411.8157
106.75201
0
252.07621
0
411.8157
402.81836
73.001474
411.8157
392.63239
410.74572
403.76293
318.66356
0
206.42127
367.26211
0
158.07751
125.30278
307.69533
121.35118
0
0
368.67973
411.8157
0
0
0
0
0
351.56506
389.48597
206.13363
411.8157
0
0
0
137.94309
411.8157
0
0
0
471.50949
129.00088
98.764797
471.50949
140.40465
471.50949
471.50949
471.50949
76.944296
471.50949
471.50949
76.469023
471.50949
471.50949
471.50949
144.31819
168.29268
109.4746
78.13033
471.50949
471.50949
112.63539
167.20308
471.50949
471.50949
471.50949
471.50949
471.50949
471.50949
151.40571
471.50949
471.50949
471.50949
114.58925
77.49752
83.510405
86.580293
471.50949
471.50949
471.50949
471.50949
471.50949
471.50949
471.50949
90.49998
84.750194
174.01988
87.84351
471.50949
471.50949
471.50949
471.50949
471.50949
190.01763
82.94485
471.50949
128.49297
471.50949
471.50949
471.50949
471.50949
199.82493
471.50949
471.50949
86.613373
82.278162
85.323809
471.50949
471.50949
471.50949
471.50949
471.50949
98.93652
133.22144
102.1961
471.50949
471.50949
471.50949
471.50949
471.50949
471.50949
471.50949
471.50949
471.50949
471.50949
471.50949
471.50949
471.50949
237.41792
471.50949
471.50949
471.50949
411.8157
411.8157
471.50949
411.8157
411.8157
471.50949
411.8157
471.50949
471.50949
172.46649
471.50949
129.70008
95.461634
471.50949
471.50949
471.50949
471.50949
193.69147
96.789414
471.50949
471.50949
471.50949
411.8157
471.50949
471.50949
471.50949
411.8157
471.50949
411.8157
411.8157
471.50949
471.50949
411.8157
471.50949
411.8157
471.50949
411.8157
411.8157
471.50949
471.50949
411.8157
471.50949
411.8157
471.50949
471.50949
471.50949
471.50949
471.50949
471.50949
471.50949
471.50949
471.50949
471.50949
471.50949
471.50949
471.50949
411.8157
471.50949
471.50949
471.50949
411.8157
411.8157
471.50949
471.50949
471.50949
471.50949
471.50949
471.50949
471.50949
471.50949
471.50949
471.50949
471.50949
207.51652
471.50949
471.50949
471.50949
471.50949
154.67812
182.95024
109.5793
187.48773
224.82795
110.99764
471.50949
471.50949
471.50949
471.50949
471.50949
471.50949
471.50949
471.50949
411.8157
411.8157
411.8157
411.8157
471.50949
471.50949
471.50949
411.8157
411.8157
411.8157
411.8157
411.8157
411.8157
471.50949
471.50949
471.50949
411.8157
411.8157
411.8157
471.50949
471.50949
411.8157
471.50949
471.50949
471.50949
471.50949
411.8157
471.50949
411.8157
411.8157
411.8157
471.50949
411.8157
411.8157
411.8157
471.50949
411.8157
411.8157
411.8157
471.50949
411.8157
411.8157
411.8157
411.8157
471.50949
411.8157
411.8157
411.8157
471.50949
411.8157
411.8157
471.50949
411.8157
411.8157
411.8157
471.50949
411.8157
411.8157
411.8157
471.50949
411.8157
411.8157
411.8157
471.50949
411.8157
411.8157
471.50949
471.50949
471.50949
471.50949
471.50949
471.50949
471.50949
471.50949
471.50949
471.50949
471.50949
471.50949
229.04597
471.50949
97.425212
94.140056
471.50949
471.50949
471.50949
146.78551
111.45169
471.50949
471.50949
471.50949
471.50949
471.50949
471.50949
471.50949
471.50949
471.50949
471.50949
471.50949
471.50949
471.50949
471.50949
471.50949
471.50949
471.50949
471.50949
471.50949
471.50949
471.50949
471.50949
471.50949
471.50949
471.50949
471.50949
471.50949
471.50949
471.50949
471.50949
471.50949
471.50949
471.50949
471.50949
471.50949
471.50949
471.50949
471.50949
471.50949
471.50949
471.50949
471.50949
471.50949
471.50949
471.50949
471.50949
471.50949
411.8157
411.8157
411.8157
411.8157
411.8157
411.8157
411.8157
411.8157
411.8157
411.8157
411.8157
411.8157
411.8157
411.8157
411.8157
411.8157
411.8157
411.8157
411.8157
411.8157
411.8157
411.8157
471.50949
471.50949
471.50949
471.50949
471.50949
471.50949
471.50949
471.50949
471.50949
471.50949
471.50949
471.50949
471.50949
471.50949
471.50949
471.50949
471.50949
471.50949
471.50949
471.50949
471.50949
471.50949
252.99619
471.50949
471.50949
471.50949
471.50949
115.15732
188.7713
108.16519
127.4185
167.9456
471.50949
125.69729
128.87987
471.50949
471.50949
471.50949
471.50949
471.50949
471.50949
471.50949
471.50949
471.50949
471.50949
471.50949
471.50949
471.50949
471.50949
471.50949
471.50949
471.50949
471.50949
471.50949
471.50949
411.8157
471.50949
411.8157
411.8157
471.50949
411.8157
411.8157
471.50949
411.8157
411.8157
471.50949
411.8157
411.8157
471.50949
411.8157
411.8157
471.50949
411.8157
411.8157
471.50949
411.8157
411.8157
471.50949
411.8157
411.8157
471.50949
411.8157
411.8157
471.50949
411.8157
471.50949
471.50949
471.50949
471.50949
471.50949
471.50949
471.50949
471.50949
471.50949
471.50949
471.50949
471.50949
471.50949
471.50949
471.50949
471.50949
471.50949
471.50949
471.50949
471.50949
471.50949
471.50949
471.50949
471.50949
471.50949
471.50949
471.50949
471.50949
471.50949
471.50949
471.50949
411.8157
411.8157
411.8157
411.8157
411.8157
411.8157
411.8157
411.8157
411.8157
411.8157
471.50949
471.50949
471.50949
471.50949
471.50949
471.50949
471.50949
471.50949
471.50949
471.50949
471.50949
471.50949
471.50949
137.6909
125.85169
192.92913
143.69022
471.50949
471.50949
471.50949
471.50949
471.50949
471.50949
471.50949
471.50949
471.50949
440.12659
0
55.572271
56.464377
588.64812
141.5632
75.111676
42.726515
415.83109
)


544
(
201.24442
0
205.72564
0
0
0
0
283.7116
49.653689
0
0
0
268.97481
0
0
0
230.86685
54.890143
41.074286
111.95344
0
28.659102
58.648781
70.900152
257.32187
0
0
53.912334
48.586464
52.028533
79.026132
284.42858
273.20909
0
278.65655
57.88911
0
0
58.851103
0
0
0
0
0
524.72754
205.15608
0
0
0
0
524.72754
111.65618
0
0
106.23169
0
0
0
230.68837
524.72754
185.09554
156.68942
0
0
0
0
0
0
0
0
0
0
230.21994
524.72754
524.72754
524.72754
184.76432
119.59157
112.17957
112.34728
0
0
0
0
0
524.72754
524.72754
101.07347
106.51521
0
106.58663
0
0
0
0
0
524.72754
148.41652
0
0
0
0
0
0
524.72754
524.72754
524.72754
148.32542
118.92307
119.12077
0
0
0
0
0
101.14001
0
101.15167
0
0
0
524.72754
524.72754
524.72754
524.72754
524.72754
524.72754
524.72754
524.72754
524.72754
524.72754
223.17067
146.54746
524.72754
223.0306
284.42858
284.42858
524.72754
284.42858
284.42858
524.72754
284.42858
0
0
240.1988
524.72754
191.39772
114.24749
0
0
0
524.72754
0
107.68249
0
0
524.72754
284.42858
524.72754
524.72754
524.72754
284.42858
524.72754
284.42858
284.42858
524.72754
524.72754
284.42858
524.72754
284.42858
524.72754
284.42858
284.42858
524.72754
524.72754
284.42858
524.72754
284.42858
524.72754
524.72754
524.72754
524.72754
524.72754
524.72754
524.72754
524.72754
524.72754
238.01702
524.72754
524.72754
524.72754
284.42858
524.72754
524.72754
524.72754
284.42858
284.42858
524.72754
524.72754
524.72754
524.72754
524.72754
524.72754
524.72754
524.72754
524.72754
524.72754
524.72754
254.92589
524.72754
524.72754
524.72754
524.72754
201.10713
147.04694
116.94739
121.68987
130.66827
109.21638
524.72754
524.72754
524.72754
524.72754
153.5101
524.72754
524.72754
524.72754
284.42858
284.42858
284.42858
284.42858
524.72754
524.72754
524.72754
284.42858
284.42858
284.42858
284.42858
284.42858
284.42858
524.72754
524.72754
524.72754
284.42858
284.42858
284.42858
524.72754
524.72754
284.42858
195.79628
524.72754
524.72754
524.72754
284.42858
524.72754
284.42858
284.42858
284.42858
524.72754
284.42858
284.42858
284.42858
524.72754
284.42858
284.42858
284.42858
524.72754
284.42858
284.42858
284.42858
284.42858
524.72754
284.42858
284.42858
284.42858
524.72754
284.42858
284.42858
524.72754
284.42858
284.42858
284.42858
524.72754
284.42858
284.42858
284.42858
524.72754
284.42858
284.42858
284.42858
524.72754
284.42858
284.42858
524.72754
524.72754
524.72754
524.72754
524.72754
524.72754
524.72754
524.72754
524.72754
524.72754
0
0
524.72754
524.72754
152.57007
121.65552
0
0
0
0
101.5277
0
0
524.72754
524.72754
524.72754
524.72754
524.72754
524.72754
524.72754
524.72754
524.72754
524.72754
524.72754
524.72754
524.72754
524.72754
524.72754
524.72754
524.72754
524.72754
524.72754
524.72754
524.72754
524.72754
524.72754
524.72754
524.72754
524.72754
524.72754
524.72754
524.72754
524.72754
524.72754
524.72754
524.72754
524.72754
524.72754
524.72754
524.72754
524.72754
524.72754
524.72754
524.72754
524.72754
524.72754
236.10974
524.72754
284.42858
284.42858
284.42858
284.42858
284.42858
284.42858
284.42858
284.42858
284.42858
284.42858
284.42858
284.42858
284.42858
284.42858
284.42858
284.42858
284.42858
284.42858
284.42858
284.42858
284.42858
284.42858
524.72754
524.72754
524.72754
524.72754
524.72754
524.72754
524.72754
524.72754
524.72754
524.72754
524.72754
524.72754
524.72754
524.72754
524.72754
524.72754
524.72754
524.72754
524.72754
524.72754
524.72754
524.72754
524.72754
524.72754
524.72754
524.72754
524.72754
158.70865
213.09836
125.28827
119.7509
111.15361
136.75104
102.02923
111.0236
524.72754
524.72754
524.72754
524.72754
186.39157
163.03548
524.72754
524.72754
524.72754
524.72754
524.72754
524.72754
524.72754
524.72754
524.72754
524.72754
524.72754
524.72754
524.72754
524.72754
284.42858
524.72754
284.42858
284.42858
524.72754
284.42858
284.42858
524.72754
284.42858
284.42858
524.72754
284.42858
284.42858
524.72754
284.42858
284.42858
524.72754
284.42858
284.42858
524.72754
284.42858
284.42858
524.72754
284.42858
284.42858
524.72754
284.42858
284.42858
524.72754
284.42858
524.72754
524.72754
524.72754
524.72754
524.72754
524.72754
524.72754
524.72754
524.72754
524.72754
524.72754
524.72754
524.72754
524.72754
524.72754
524.72754
524.72754
524.72754
524.72754
524.72754
524.72754
524.72754
524.72754
524.72754
524.72754
524.72754
524.72754
524.72754
524.72754
524.72754
524.72754
284.42858
284.42858
284.42858
284.42858
284.42858
284.42858
284.42858
284.42858
284.42858
284.42858
524.72754
524.72754
524.72754
524.72754
524.72754
524.72754
524.72754
524.72754
524.72754
524.72754
524.72754
524.72754
524.72754
164.89184
129.92393
113.16041
102.39718
524.72754
524.72754
201.66701
524.72754
524.72754
524.72754
524.72754
524.72754
524.72754
384.41021
0
30.061711
4.6518653
540.73418
234.21346
0.00063834071
34.739409
300.55419
)

)


// ************************************************************************* //
