/*--------------------------------*- C++ -*----------------------------------*\
  =========                 |
  \\      /  F ield         | OpenFOAM: The Open Source CFD Toolbox
   \\    /   O peration     | Website:  https://openfoam.org
    \\  /    A nd           | Version:  8
     \\/     M anipulation  |
\*---------------------------------------------------------------------------*/
/*   Windows 32 and 64 bit porting by blueCAPE: http://www.bluecape.com.pt   *\
|  Based on Windows porting (2.0.x v4) by Symscape: http://www.symscape.com   |
\*---------------------------------------------------------------------------*/
FoamFile
{
    version     2.0;
    format      ascii;
    class       polyBoundaryMesh;
    location    "constant/vegetation/polyMesh";
    object      boundary;
}
// * * * * * * * * * * * * * * * * * * * * * * * * * * * * * * * * * * * * * //

14
(
    left
    {
        type            mappedPatch;
        inGroups        List<word> 1(mappedPatch);
        nFaces          0;
        startFace       6516;
        sampleMode      nearestPatchFace;
        sampleRegion    air;
        samplePatch     left;
    }
    right
    {
        type            mappedPatch;
        inGroups        List<word> 1(mappedPatch);
        nFaces          0;
        startFace       6516;
        sampleMode      nearestPatchFace;
        sampleRegion    air;
        samplePatch     right;
    }
    back
    {
        type            mappedPatch;
        inGroups        List<word> 1(mappedPatch);
        nFaces          0;
        startFace       6516;
        sampleMode      nearestPatchFace;
        sampleRegion    air;
        samplePatch     back;
    }
    front
    {
        type            mappedPatch;
        inGroups        List<word> 1(mappedPatch);
        nFaces          0;
        startFace       6516;
        sampleMode      nearestPatchFace;
        sampleRegion    air;
        samplePatch     front;
    }
    bottom
    {
        type            mappedWall;
        inGroups        List<word> 
2
(
wall
mappedPatch
)
;
        nFaces          138;
        startFace       6516;
        sampleMode      nearestPatchFace;
        sampleRegion    air;
        samplePatch     bottom;
    }
    top
    {
        type            mappedPatch;
        inGroups        List<word> 1(mappedPatch);
        nFaces          0;
        startFace       6654;
        sampleMode      nearestPatchFace;
        sampleRegion    air;
        samplePatch     top;
    }
    tower
    {
        type            mappedWall;
        inGroups        List<word> 
2
(
wall
mappedPatch
)
;
        nFaces          232;
        startFace       6654;
        sampleMode      nearestPatchFace;
        sampleRegion    air;
        samplePatch     tower;
    }
    air_to_vegetation
    {
        type            mappedWall;
        inGroups        List<word> 
2
(
wall
mappedPatch
)
;
        nFaces          218;
        startFace       6886;
        sampleMode      nearestCell;
        sampleRegion    air;
        offsetMode      uniform;
        offset          (0 0 0);
    }
    procBoundary11to10
    {
        type            processor;
        inGroups        List<word> 1(processor);
        nFaces          129;
        startFace       7104;
        matchTolerance  0.0001;
        myProcNo        11;
        neighbProcNo    10;
    }
    procBoundary11to13
    {
        type            processor;
        inGroups        List<word> 1(processor);
        nFaces          3;
        startFace       7233;
        matchTolerance  0.0001;
        myProcNo        11;
        neighbProcNo    13;
    }
    procBoundary11to14
    {
        type            processor;
        inGroups        List<word> 1(processor);
        nFaces          115;
        startFace       7236;
        matchTolerance  0.0001;
        myProcNo        11;
        neighbProcNo    14;
    }
    procBoundary11to15
    {
        type            processor;
        inGroups        List<word> 1(processor);
        nFaces          8;
        startFace       7351;
        matchTolerance  0.0001;
        myProcNo        11;
        neighbProcNo    15;
    }
    procBoundary11to16
    {
        type            processor;
        inGroups        List<word> 1(processor);
        nFaces          250;
        startFace       7359;
        matchTolerance  0.0001;
        myProcNo        11;
        neighbProcNo    16;
    }
    procBoundary11to19
    {
        type            processor;
        inGroups        List<word> 1(processor);
        nFaces          38;
        startFace       7609;
        matchTolerance  0.0001;
        myProcNo        11;
        neighbProcNo    19;
    }
)

// ************************************************************************* //
