/*--------------------------------*- C++ -*----------------------------------*\
  =========                 |
  \\      /  F ield         | OpenFOAM: The Open Source CFD Toolbox
   \\    /   O peration     | Website:  https://openfoam.org
    \\  /    A nd           | Version:  8
     \\/     M anipulation  |
\*---------------------------------------------------------------------------*/
/*   Windows 32 and 64 bit porting by blueCAPE: http://www.bluecape.com.pt   *\
|  Based on Windows porting (2.0.x v4) by Symscape: http://www.symscape.com   |
\*---------------------------------------------------------------------------*/
FoamFile
{
    version     2.0;
    format      ascii;
    class       scalarListList;
    location    "constant/vegetation";
    object      F;
}
// * * * * * * * * * * * * * * * * * * * * * * * * * * * * * * * * * * * * * //


578
(

2221
(
0.0034457367
0.00049680067
0.00089630426
0.0010273399
0.0020754944
0.00027972923
0.00052087476
0.0015189502
0.0011204954
0.00022159038
0.00012698398
0.00035112858
9.4697969e-05
0.00019844211
0.00041392148
0.015098119
0.0041784851
0.0035298484
0.015886537
0.0020346064
0.0062134705
0.002687043
1.0837308e-05
1.5098223e-07
1.144137e-07
2.2438048e-07
2.3199885e-07
1.3332888e-08
8.5249714e-05
1.267228e-06
1.6625018e-07
1.0201538e-07
2.6189303e-07
2.1447398e-07
4.1997128e-08
6.8202119e-05
1.5155379e-05
1.6603018e-05
1.1601226e-05
1.0567882e-05
3.1819538e-05
3.6702256e-05
2.4003492e-05
2.1873143e-05
8.1523154e-06
8.2692448e-06
0.00025536322
0.00015188527
0.00013942102
0.00030725718
0.00028118697
7.8106009e-05
0.0004298066
0.00019724294
0.00010843914
0.00039841527
0.00021544389
9.9938637e-05
8.3852258e-05
0.00040984134
1.3855067e-07
0.00016559438
1.2548707e-07
0.00012809377
0.00033561287
2.397684e-07
0.00025727845
2.4213318e-07
8.5108769e-05
8.8840928e-08
0.0001243457
0.00044767082
1.5732182e-07
0.00018066504
1.8083133e-07
0.00011779907
8.9142983e-08
0.00036618346
2.9057417e-07
0.00023540246
1.9854715e-07
9.2207438e-05
6.902221e-08
5.5444991e-05
1.3854292e-05
1.8188301e-05
1.2666561e-05
9.6492034e-06
2.888734e-05
4.5145939e-05
2.6326415e-05
1.9949646e-05
8.9150307e-06
8.8785833e-06
0.00027974597
0.00022668922
0.00026425447
0.00029159576
0.0004422501
0.00056832738
0.00052994033
0.00022326464
0.00039888663
0.0001846093
0.00014174117
0.00048579099
0.00076641998
0.00016032746
0.00016904686
0.00021378734
0.00015865967
0.00051535574
0.00025973802
0.00047167596
2.8696382e-05
2.5140076e-05
2.3432425e-05
2.2196632e-05
2.1417827e-05
2.5204494e-05
2.5067716e-05
2.3839961e-05
2.4244267e-05
2.5234834e-05
2.5234968e-05
3.0118631e-05
3.2842707e-05
4.3138468e-05
4.7374683e-05
6.3007134e-05
6.9685227e-05
9.4085605e-05
0.00010385615
0.00014109558
0.00015597461
0.00021040035
0.0003440793
0.00028421362
0.00034917782
0.00026562094
0.00018337006
0.00023261118
0.00018992739
0.00043214811
0.00040565788
0.00026443464
0.00020363142
0.00067464635
0.00098136182
0.0005908825
0.0010092806
0.00023951572
0.00057266941
0.00090371565
0.00097447901
0.00024577196
0.00027127527
0.00029665159
0.00033071155
2.1859554e-05
2.5056124e-05
2.3652476e-05
0.00020449425
0.00015198584
0.00017016879
0.00011792285
0.00013283684
0.00013695946
0.00052993089
0.00022140967
0.00018688971
2.5214484e-05
0.00026393317
0.00014350499
0.0001699753
0.00014745249
0.00017538144
0.0002267636
0.00018552231
0.00013657594
0.00014417298
0.00026315289
0.00018648267
0.00024822012
2.1083363e-05
2.4911525e-05
2.4066244e-05
6.9007117e-05
7.7655128e-05
0.00011404271
0.00010505347
0.00024090221
0.00023505405
0.00015873607
0.00017467624
5.2976916e-05
4.7907842e-05
3.3066709e-05
3.6530391e-05
2.5661102e-05
2.6497249e-05
0.00042428146
0.00052424104
0.00043022767
0.00031716055
0.00027640774
0.0003387028
0.00050760934
0.00038869981
0.00041662028
0.00024074076
0.00023926082
0.00025189842
0.00025837568
0.0001842427
0.00016943383
0.00021725577
0.0002250834
0.00026347654
0.00026204364
0.00021597201
0.00022739256
2.1903102e-05
2.4442156e-05
2.2473312e-05
2.4468008e-05
0.00015105336
0.00012251704
0.00019161512
0.00025839596
0.00019046477
2.355331e-05
3.1119374e-05
2.1610285e-05
1.6571157e-05
0.00019584979
0.00025311763
0.00023440794
0.00017178041
0.00077390176
0.00015922463
0.00013407948
0.000494108
4.939843e-05
8.5751434e-05
0.00025315447
0.00016757495
0.00018679256
0.00043234795
4.5160942e-05
0.00035914739
3.4017327e-05
2.0709962e-05
2.1274202e-05
2.4056756e-05
0.00016610015
2.3782102e-05
1.642345e-05
1.5313719e-05
6.3006342e-05
8.9607871e-05
0.00012803747
9.9087784e-05
0.00024858975
0.00022984931
0.00017160143
0.00020645521
6.9776199e-05
4.5687222e-05
3.1257856e-05
4.158795e-05
2.8715887e-05
3.6765595e-05
0.00023525438
0.0010390148
0.00074790458
0.00018960824
1.8727143e-05
2.555934e-05
2.5884568e-05
2.2830265e-05
2.0353088e-05
2.5270802e-05
2.4860157e-05
2.3371494e-05
2.4584888e-05
2.5270309e-05
2.5362153e-05
2.7846751e-05
3.5929462e-05
3.9334981e-05
5.2009062e-05
5.714701e-05
7.7125198e-05
8.5250713e-05
0.00011490635
0.0001273798
0.00017239716
0.00019088093
0.00026590091
0.0002634719
7.7939923e-05
0.00026536546
0.00025950733
4.8017906e-05
4.2105365e-05
0.00020322254
0.00021745033
0.00023750141
0.00022926885
2.2583088e-05
2.0806527e-05
2.5140698e-05
2.4436237e-05
2.3022325e-05
2.316846e-05
8.5757491e-05
0.00012189081
0.00020396207
0.00024459106
3.6415344e-05
2.5165051e-05
2.4115641e-05
0.0001305412
0.00026182077
0.00026050165
0.0002563364
0.00026137087
0.0001887664
0.00016330263
0.00024614732
0.00025525384
1.6984172e-05
2.0063396e-05
1.9963973e-05
2.4286666e-05
2.4697847e-05
2.3420077e-05
2.4416115e-05
6.2538061e-05
6.9713271e-05
9.324983e-05
8.6347068e-05
0.00012627581
0.00011533193
0.00012721283
9.553469e-05
0.0002332563
0.00025703863
0.00025215826
0.00021447103
0.00014245909
0.00016595791
0.00018483522
0.00019354757
5.7884848e-05
5.4930982e-05
5.01463e-05
4.3662466e-05
3.0760602e-05
3.3432546e-05
4.3568754e-05
4.0117207e-05
2.4745603e-05
2.6799983e-05
2.9312175e-05
2.7787732e-05
0.00011562985
0.00024128439
0.00019396646
0.00019271576
0.00023613582
2.5888974e-05
2.8263269e-05
1.9664834e-05
1.8087735e-05
0.00024432573
0.00022583563
0.00027734337
0.00025833579
0.00019714359
0.00014638306
0.00014975561
0.00013546076
5.3982346e-05
6.0652589e-05
0.00020800931
0.00017554708
0.00023141129
0.00018155691
4.101995e-05
3.7498357e-05
1.3577246e-05
1.4033576e-05
6.5918744e-05
5.9420061e-05
3.4403537e-05
4.7914318e-05
2.4307319e-05
3.7545716e-05
4.6207459e-05
3.4580296e-05
3.8057737e-05
8.7628692e-05
6.4848033e-05
4.4002639e-05
0.00014667084
6.4540746e-05
0.00011545097
0.00019867939
0.00017480968
0.00014521309
3.0524288e-05
2.8742774e-05
1.5956962e-05
1.928629e-31
8.3163783e-05
0.00030534815
0.00018573889
0.00014154469
8.9728664e-05
0.00035369506
0.00015935913
6.7342114e-05
1.2319089e-05
0.00013835832
6.06872e-05
1.9883743e-05
6.974035e-05
4.1159953e-05
6.7083008e-05
0.00013100536
0.00021692496
0.00015839221
2.7762859e-05
3.2907077e-05
4.5530543e-05
1.8288668e-05
1.4786183e-05
0.00084240201
1.183674e-05
1.6220711e-05
2.2769116e-06
1.602508e-06
1.127995e-08
1.678135e-08
5.3799275e-06
1.2228743e-08
1.6756443e-06
1.1821202e-08
1.6172949e-08
7.256601e-06
1.472934e-08
1.139549e-05
2.2059962e-07
1.7314372e-06
1.4551827e-06
1.5434797e-06
1.4347575e-06
1.4841898e-06
2.7067772e-06
2.2221256e-06
1.6049288e-05
1.5175939e-05
2.2028453e-05
2.3509687e-05
7.0250891e-05
1.9054045e-05
1.2729081e-05
2.0210617e-05
1.1590793e-05
1.162836e-07
7.5533995e-05
1.6535626e-06
9.6455544e-05
1.2645424e-05
1.4094724e-05
7.3054928e-08
0.00010496394
1.2077916e-05
4.2935979e-05
5.3436178e-06
1.0263166e-08
1.6981302e-05
1.2353524e-08
1.4353417e-05
1.9014958e-05
3.6021896e-05
6.4220129e-07
1.1924494e-05
2.2693911e-05
5.4467624e-08
5.7409577e-05
2.0022865e-07
1.7980067e-05
1.1177198e-08
1.3558813e-05
9.8782904e-09
4.3421481e-06
1.8755492e-05
2.1447413e-05
1.2951823e-08
9.9888307e-06
9.3939716e-06
2.9050419e-08
1.5521851e-06
1.3796717e-06
1.6470124e-06
1.3654074e-06
1.4911646e-06
3.3279936e-06
1.8461843e-06
2.0495302e-05
2.5231104e-05
1.9088291e-05
2.3553487e-05
1.7699624e-05
2.4362212e-05
2.2324825e-05
1.9948988e-05
2.5288257e-05
2.6378024e-05
9.6625506e-06
1.0576223e-05
1.0168708e-05
3.2739547e-05
3.0979424e-05
3.1969777e-06
2.4994633e-05
3.1156031e-06
2.1459526e-05
3.0096084e-06
3.8668116e-05
1.0590113e-05
3.204237e-06
3.6048595e-05
3.7245276e-05
3.5840325e-05
3.6877451e-05
9.3819085e-06
1.0534171e-05
1.0288196e-05
3.7522583e-06
3.1879997e-06
3.7415705e-06
3.139097e-06
3.6540388e-06
3.6828158e-06
3.4960979e-06
2.9408683e-06
3.352117e-06
1.058363e-05
3.7658148e-06
3.205479e-06
3.7735001e-06
3.067071e-06
3.2728857e-06
2.2262435e-05
2.0818914e-05
2.3209538e-05
3.07289e-05
2.9840459e-05
2.1447283e-05
1.973027e-05
2.3976206e-05
6.1899636e-06
8.2081306e-06
6.9295778e-06
2.0606683e-05
2.2276941e-05
2.3033523e-05
6.6891287e-06
5.5661704e-06
6.1285752e-06
8.1733281e-06
7.5197513e-06
1.0482891e-05
2.0823476e-05
4.6739328e-06
4.5899859e-06
3.4134533e-06
3.6257888e-06
3.7005369e-06
3.6884275e-06
3.6737487e-06
3.8013706e-06
5.9650096e-06
3.5953266e-06
3.6243011e-06
3.3567886e-06
3.2470295e-06
1.0213153e-05
6.9001957e-06
6.7587628e-06
5.2316394e-06
7.2883697e-06
1.1924482e-05
4.3849895e-06
5.5820003e-06
6.7717711e-06
4.1649793e-06
7.4152093e-06
9.0842528e-06
9.7728686e-06
9.2464895e-06
8.0848349e-06
8.8615462e-06
9.8072335e-06
8.705815e-06
8.2361653e-06
2.2976155e-06
2.7459743e-06
2.2371722e-06
2.5942698e-06
6.4600583e-06
7.7493816e-06
9.6469612e-06
9.5734814e-06
5.5589047e-06
3.0038929e-06
4.1772016e-06
4.1402186e-06
4.0163833e-06
4.1179932e-06
2.5776575e-06
3.9584044e-06
3.2732713e-06
4.504956e-06
6.7669814e-06
9.5258563e-06
7.2771582e-06
9.9758807e-06
9.9479203e-06
4.1823295e-06
4.2631711e-06
4.2772128e-06
4.5821202e-06
4.2885273e-06
4.0867943e-06
4.0487751e-06
4.0916864e-06
4.4070911e-06
9.8663782e-06
2.6204278e-05
8.852803e-06
2.5682819e-05
1.0597572e-05
2.8104119e-05
9.743038e-06
2.8038028e-05
9.3750265e-06
1.00299e-05
2.6621063e-05
2.6976308e-05
6.9447247e-06
3.2022708e-06
3.9244499e-06
4.0264517e-06
3.0879804e-06
3.8640548e-06
3.305762e-06
3.0543962e-06
9.6507537e-06
6.7808066e-06
1.0599922e-05
2.8121394e-05
9.8547211e-06
2.8089985e-05
3.2042528e-06
8.5850043e-06
8.520964e-06
8.4651322e-06
8.9584434e-06
2.3797334e-05
2.4948772e-05
9.7034113e-06
1.0471587e-05
2.7757198e-05
2.7922582e-05
9.4829372e-06
1.0389269e-05
2.7543329e-05
2.7282789e-05
2.0777752e-05
2.1025639e-05
2.1138253e-05
3.758807e-06
4.1694065e-06
3.1753079e-06
4.1573222e-06
3.7264158e-06
3.1589909e-06
3.6190052e-06
4.0575303e-06
3.7068304e-06
4.0905875e-06
3.5719772e-06
3.8598003e-06
2.8246051e-06
3.6647594e-06
3.0703079e-06
9.9140763e-06
1.0614111e-05
2.7815863e-05
2.8003024e-05
3.4687716e-05
3.1586671e-05
3.0689358e-05
3.5977927e-05
3.6552126e-05
3.8069781e-05
3.7624274e-06
4.1914457e-06
3.2134708e-06
4.2161542e-06
3.7910359e-06
2.9560035e-05
2.8790875e-05
3.2231098e-05
3.3224455e-05
3.1797502e-05
3.178522e-05
3.5790833e-05
3.5778719e-05
3.1768036e-05
3.1688803e-05
3.5649599e-05
3.5739071e-05
3.0081458e-05
3.0492571e-05
3.4314122e-05
3.3846609e-05
2.624771e-06
3.210176e-06
3.4007734e-05
3.5124432e-05
2.5007956e-05
2.7458922e-05
2.6884149e-05
3.0382687e-05
2.7801737e-05
3.1869551e-05
3.78494e-05
3.7828916e-05
3.1714605e-05
3.1746075e-05
3.5931865e-05
3.5819349e-05
3.8035851e-05
3.7895592e-05
3.1369931e-05
3.1555879e-05
3.5502552e-05
3.5294776e-05
3.7691369e-05
3.7784851e-05
3.7537471e-05
3.7320832e-05
3.6294322e-05
3.5798527e-05
3.1130965e-05
3.0838691e-05
3.4701603e-05
3.502737e-05
3.6701163e-05
3.7041887e-05
5.8884373e-06
7.8603765e-06
6.4699e-06
9.2049564e-06
7.0551953e-06
3.4332389e-05
3.3959356e-05
8.6687845e-06
6.859104e-06
8.348935e-06
6.584131e-06
8.2977955e-06
2.1910856e-05
2.5630533e-06
5.0389968e-06
5.6728585e-06
7.3652073e-06
6.5778832e-06
8.9185193e-06
8.6822231e-06
7.9153913e-06
6.9864499e-06
9.381389e-06
1.0670271e-05
2.7152865e-05
2.437816e-05
3.5646137e-05
4.7531027e-06
4.8194939e-06
5.7390353e-06
4.3835703e-06
3.7496321e-06
3.7913716e-06
4.0896283e-06
4.0781983e-06
3.7037746e-06
4.0660187e-06
3.6705752e-06
4.1072576e-06
3.7114293e-06
4.1985905e-06
4.5296439e-06
7.5387243e-06
6.1582956e-06
3.9657479e-06
3.5488872e-06
3.9988879e-06
3.6505331e-06
3.7643628e-06
3.4973209e-06
3.4076966e-06
3.6096955e-06
9.5379683e-06
8.7493145e-06
8.6354112e-06
6.8716031e-06
8.4424628e-06
6.8224704e-06
4.9094396e-06
7.8742023e-06
8.2714173e-06
4.6281806e-06
2.4534986e-06
2.5950929e-06
2.6826108e-06
3.2751706e-06
5.8399643e-06
4.130502e-06
5.9481822e-06
6.3358721e-06
3.959749e-06
7.7107462e-06
5.5751068e-06
5.2210264e-06
4.5665378e-06
2.6666368e-06
0.0026328349
7.314189e-05
0.00011814083
0.0001138
0.00038346898
8.497916e-05
0.00093343627
0.00060295298
0.0026315533
0.31915376
0.011421061
0.082627235
0.017634607
0.002508501
0.00031629951
0.0035969003
0.00012000414
0.00040812492
0.054964456
0.0054204021
0.00038637798
0.00016501664
0.0033971438
0.0035752637
0.0010040155
0.0017191306
0.00042491257
0.00032391065
0.0015753188
0.00030695613
0.0066989668
0.0072351561
0.0030975905
0.0008935726
0.0017531939
0.0002339147
0.00018770948
0.0015411467
0.0005220965
0.0017732275
0.0010074667
0.00025468566
0.00081941706
0.00081834581
0.0010956624
0.0005961122
0.0002296445
0.00042782214
0.00010873972
0.00010090363
0.0040320551
0.00021346404
0.00010977467
0.0010973609
0.00029486143
0.00023705529
0.00041035287
9.7955157e-05
9.0673791e-05
0.00019276223
0.0034257175
0.00020662889
0.16968778
0.039428591
0.010835492
0.0062935876
0.00022710179
0.00023801232
0.00016609469
0.00036062935
0.00033266684
0.00034882703
0.00019101193
0.00027465505
0.00041523285
0.00016275802
0.00028817171
0.00040021681
4.9855464e-07
0.00021605356
5.3701032e-07
6.5765019e-07
0.00024958286
7.3315821e-07
0.00042182777
7.7282885e-06
6.808158e-07
0.0003171715
9.9864903e-07
9.5149194e-07
0.00036559546
1.04639e-06
1.0479831e-06
0.00020485579
8.0316001e-07
4.9607938e-07
0.00026179845
8.1737343e-07
7.7700674e-07
0.00042610742
6.0830875e-07
4.8159058e-07
7.0094733e-05
5.9570555e-05
0.00013982147
5.7800413e-06
4.1557866e-05
3.311397e-05
5.105667e-05
0.00030233881
8.6040573e-07
9.0399084e-07
0.00038285671
6.3567785e-07
9.3184416e-07
5.8554593e-05
2.8235431e-05
2.7004281e-05
2.8334078e-05
2.6801776e-05
3.0203976e-05
3.1926718e-05
3.5426994e-05
3.3695465e-05
9.2489907e-05
5.0960479e-05
5.384862e-05
4.3351705e-05
4.1226334e-05
3.726417e-05
3.919048e-05
4.5553857e-05
4.7486489e-05
4.9297899e-05
4.8438709e-05
0.00017480882
0.00032406058
0.00037508918
0.00019505748
0.0001750728
0.00035584707
0.00019545872
0.00031705416
0.00028296084
0.00032220459
0.00044691497
0.0001490216
0.00015457923
0.00030480488
0.00016655775
0.00049206157
0.00050466006
0.00056092309
5.8659216e-05
4.7616142e-05
6.2382023e-05
7.3386381e-05
0.00011162824
0.00017018768
0.00010596175
0.0001043455
0.00058915233
0.00017287355
0.00054156246
0.00017291673
4.9219235e-05
7.137431e-05
5.9454276e-05
8.9902658e-05
7.7074066e-05
0.0001249998
0.00016728648
7.8047317e-05
7.687504e-05
7.2923773e-05
7.614091e-05
9.4190989e-05
9.1903597e-05
0.00016976061
9.5006902e-05
0.00011213034
0.00014112351
0.0001187031
0.00019263653
0.00018728657
0.0001495737
0.0001774292
9.0387294e-05
8.2608595e-05
7.8068062e-05
7.8181838e-05
7.7770187e-05
0.00032343104
8.5640528e-05
8.4459378e-05
0.00035093104
0.00053200047
0.00049269587
0.00021071008
0.0001898897
0.00020743045
9.8434618e-05
0.00040100175
0.00011640149
0.0002077011
0.0001944598
0.00019108022
9.2720909e-05
8.4785128e-05
8.4242452e-05
0.000231663
7.8051525e-05
6.0848292e-05
0.00031651115
7.9918308e-05
8.3626763e-05
0.00013090532
0.00018327969
0.00011750731
8.2080109e-05
8.6671967e-05
0.00044994215
0.00014662321
0.00012324899
0.00012160956
0.00011483682
0.00061197079
0.00015537425
0.00018086449
0.00017944931
0.00018071025
0.00012882007
0.0001364764
7.7866512e-05
7.4127262e-05
0.00010046987
0.00018672464
0.00018973747
0.00020437493
5.8327321e-05
7.0130759e-05
6.916417e-05
6.8494076e-05
6.5600329e-05
6.3125184e-05
6.631161e-05
7.6309415e-05
7.7845273e-05
7.6087815e-05
7.7442993e-05
7.5170225e-05
7.5709387e-05
7.1472557e-05
7.4180631e-05
7.2626719e-05
7.5242985e-05
7.4474207e-05
7.3625359e-05
8.9518116e-05
0.0001002588
9.4458597e-05
9.687338e-05
9.1605724e-05
0.00010598043
0.00010560704
9.9838824e-05
0.00010248725
0.00010846938
0.00013275972
0.00013317684
0.00012532104
0.00011176407
0.00012571127
0.00011832974
0.00018308787
0.0002025859
0.00019257137
0.00016228719
0.00017190314
0.00019661655
0.00017676035
0.00018607297
0.00014067614
0.00015846255
0.00014907907
0.00015320386
0.00014460423
0.00016773036
0.00016725322
0.00015796226
8.5129553e-05
8.6796314e-05
8.1514553e-05
6.8349752e-05
7.1022027e-05
8.4473307e-05
7.6955734e-05
7.8925387e-05
7.6389608e-05
7.8038976e-05
7.6374745e-05
7.8066434e-05
7.6696324e-05
7.6384776e-05
6.4402281e-05
9.0607429e-05
7.315631e-05
7.7402546e-05
7.7250092e-05
0.00019403511
0.00020342922
0.00020246394
0.00019536079
0.00020367287
0.00020358952
0.00015861486
0.00017427176
0.00016539577
0.00017823007
0.00018089612
0.00018638631
0.00019232471
0.00019822455
0.00020070617
0.00019495745
0.00020363539
0.00020350789
0.00014756332
0.00013135884
0.00015217488
0.00018283531
0.00019500875
0.00019106239
0.00017393149
0.00037524363
0.00042329576
0.00042472473
0.00017479251
0.00026152725
0.00036062044
0.00029294116
0.00040164189
0.00036102654
0.0003255959
0.00014262093
0.00015946494
0.00039518656
0.00052138289
0.00041857682
0.00015062123
4.9644253e-05
5.3299496e-05
6.6185154e-05
6.9491141e-05
0.00017239829
9.5327696e-05
0.00062285795
0.00058714377
0.00061884617
0.00057129156
0.000570362
0.0006006797
0.00017405789
8.5389175e-05
8.1298167e-05
0.00013490562
0.00016370544
9.823942e-05
0.00010090627
0.00015637969
8.5534518e-05
9.5169037e-05
9.567842e-05
8.5106881e-05
9.4508658e-05
9.5229307e-05
0.0003665745
0.00039546133
0.00041438968
0.00047481111
0.00053284247
0.00047616867
0.00044176416
0.00051840969
0.00046397557
0.00020314538
0.00021142726
0.00020250303
0.0002098702
0.00019841706
0.00020084923
0.00010401119
0.00010727807
0.00011428471
0.00010999682
0.0001280398
0.00012067963
0.00020125728
0.00018763635
0.0002000027
0.00019951257
0.00021199294
0.00020024343
8.8653544e-05
0.00010072489
8.7504568e-05
8.4317713e-05
9.3676773e-05
8.4463514e-05
8.6529453e-05
8.4568049e-05
9.6133836e-05
7.5075484e-05
8.6924942e-05
8.2427995e-05
5.8444398e-05
6.9606246e-05
7.5669103e-05
8.1391956e-05
8.9015322e-05
9.0981593e-05
8.2601349e-05
9.3581682e-05
9.2317942e-05
0.00017487496
0.00017143204
0.00016542141
0.00012710473
0.00015504501
0.00015000371
0.0001383334
0.00016125791
0.00015191272
0.00013055458
0.00013531723
0.00014364949
0.00016436513
0.00017048557
0.00017946777
0.00017208497
0.00017751726
0.00018641881
0.00018147713
0.00019584905
0.00018689356
0.00019528584
0.00020025509
0.00019143648
0.0022545502
0.0058056365
0.0022787684
0.0028568065
0.00092458121
0.0019583503
0.0079985625
0.0019365631
0.0003056491
3.47333e-05
0.0016702424
0.00013091211
2.9088386e-05
3.6101796e-05
0.00098865725
0.00024927343
0.00029054705
7.8455097e-05
5.3606131e-05
0.00015194678
7.8417214e-05
6.6318793e-05
0.00026183215
5.5968851e-05
0.00078909969
0.00021981973
7.1736679e-05
0.00090343969
0.00029324486
5.6591664e-05
0.00022759896
0.00012343484
7.0800871e-05
0.000506576
4.9752297e-05
0.00038253777
7.4483757e-05
0.00012151004
0.00013359284
3.9290283e-05
0.00013953361
0.00020008527
6.7021517e-05
4.4834178e-05
7.4280915e-05
0.00012827133
8.3580237e-05
0.0074975222
0.0042710175
6.2034918e-05
4.0936252e-05
4.7072955e-05
4.2684861e-05
3.9627151e-05
4.3678751e-05
3.9544924e-05
3.9477442e-05
4.3041396e-05
3.999269e-05
3.8364163e-05
3.7446782e-05
4.0525149e-05
3.8675393e-05
4.1141818e-05
4.2988502e-05
4.1095926e-05
3.955209e-05
4.0319754e-05
4.2672202e-05
4.0537506e-05
4.0796199e-05
4.2379407e-05
4.0474328e-05
3.956799e-05
4.0673533e-05
4.0606281e-05
3.9402295e-05
4.0509184e-05
3.8970245e-05
3.8236752e-05
3.863915e-05
3.778934e-05
3.7372477e-05
3.9813345e-05
4.0036866e-05
3.9379771e-05
3.899877e-05
4.3443433e-05
4.3504338e-05
0.00066852157
0.0032626772
0.0023933758
0.0023824493
0.0045604329
0.0015321282
2.1938384e-05
3.8049048e-05
2.0649494e-05
0.00060805788
0.00048048369
9.3456422e-05
0.00013904993
3.2484543e-05
2.623892e-05
0.00027160428
0.00095278398
6.9659253e-05
1.2294537e-05
6.396756e-05
9.9945065e-05
3.5684316e-05
6.6726209e-05
3.9059587e-05
1.5972843e-05
0.00010060148
7.4340228e-05
8.1974207e-05
1.8635301e-05
5.1818199e-05
0.00010542326
6.8594569e-05
2.6851158e-05
0.0034596087
0.00088677864
0.0016987672
0.00081860878
2.1150758e-05
2.1746662e-05
1.7525981e-05
1.6310753e-05
1.7073045e-05
1.9488601e-05
2.3572701e-05
1.4545944e-05
1.8972366e-05
2.402876e-05
1.5517441e-05
5.9638493e-08
2.0577234e-05
5.8131595e-08
6.0897065e-08
2.2365494e-05
5.8845965e-08
7.5128801e-06
2.2212261e-06
1.799146e-05
4.6960536e-08
5.0493025e-08
2.1456689e-05
1.6627167e-05
3.872075e-08
2.4734613e-08
2.0022519e-05
5.5046143e-08
5.6534442e-08
2.3005555e-05
1.2186252e-05
3.8633598e-08
2.8070009e-07
3.1100096e-06
1.9370713e-06
2.2265566e-06
1.8473714e-05
5.3547161e-08
5.2105949e-08
2.3969853e-05
1.6115947e-05
1.9482056e-08
2.2598757e-08
2.5730017e-06
2.5027559e-06
2.3692645e-06
2.4346412e-06
2.6358973e-06
2.1100886e-06
2.1832439e-06
2.3056943e-06
2.2443579e-06
1.9989511e-06
1.8939781e-06
1.826173e-06
1.8303072e-06
2.596231e-05
2.7205871e-05
2.5795954e-05
2.4555813e-05
2.0340366e-05
1.8528586e-05
1.9516815e-05
1.9337879e-05
8.7322389e-06
2.0561548e-05
1.9051687e-05
4.8144073e-06
3.1815464e-06
4.9247512e-06
4.9109557e-06
4.9235454e-06
4.9827991e-06
4.2618791e-06
4.6905477e-06
4.0754778e-06
3.1641238e-06
4.8137652e-06
4.0277091e-06
4.8527624e-06
4.9013505e-06
7.1049052e-06
7.8557712e-06
8.8583737e-06
8.2348115e-06
6.9008688e-06
6.3399415e-06
5.6803731e-06
6.1664343e-06
4.9932462e-06
5.5270133e-06
5.1463075e-06
2.1674482e-05
2.1410007e-05
4.0760107e-06
4.0736565e-06
7.3120516e-06
2.6950225e-05
7.9519339e-06
7.1040788e-06
2.3218786e-05
6.5253905e-06
4.0773689e-06
4.0792557e-06
4.002345e-06
3.9712829e-06
1.5682619e-05
5.1063466e-06
4.0946658e-06
5.2244955e-06
1.9668969e-05
5.2193674e-06
4.0213541e-06
4.0353994e-06
1.958471e-05
5.1531264e-06
5.2090469e-06
6.2738577e-06
6.4601736e-06
8.9433388e-06
8.7987597e-06
8.358223e-06
9.9887045e-06
7.4820584e-06
6.0963563e-06
5.925779e-06
2.1935665e-05
5.8346224e-06
6.3466048e-06
5.023918e-06
5.1609624e-06
5.1671501e-06
5.6171668e-06
5.1824714e-06
4.2874023e-06
4.8923578e-06
4.7673529e-06
3.5515565e-06
3.2697531e-06
4.5224258e-06
4.9233916e-06
4.5191656e-06
4.0638671e-06
4.0696543e-06
4.9182199e-06
4.507788e-06
4.5144024e-06
9.0851995e-06
4.5253722e-06
4.928739e-06
4.5306825e-06
4.1013678e-06
4.0850892e-06
4.947642e-06
4.5684804e-06
4.5430731e-06
3.7882853e-06
3.9109459e-06
4.4275851e-06
4.7209224e-06
4.364019e-06
3.890814e-06
4.500638e-06
4.2161592e-06
4.0562612e-06
4.0468164e-06
4.4573458e-06
4.8743604e-06
4.4751906e-06
4.4992067e-06
4.8893698e-06
4.4884892e-06
6.760447e-06
7.3209716e-06
6.9661165e-06
6.8828716e-06
6.6601775e-06
7.560964e-06
7.4616151e-06
7.1941179e-06
7.1472915e-06
7.4316716e-06
8.6588681e-06
8.6213169e-06
8.175253e-06
7.794568e-06
8.6281965e-06
8.1490452e-06
6.567349e-06
6.7062891e-06
6.3827808e-06
5.6032135e-06
5.7613698e-06
6.5195841e-06
6.0345795e-06
6.2052707e-06
5.4504872e-06
5.3030583e-06
5.4103061e-06
5.8379551e-06
5.5577086e-06
5.86981e-06
5.9991985e-06
5.7108124e-06
4.1072139e-06
3.9463349e-06
4.4427736e-06
4.1710676e-06
4.5752663e-06
4.7648345e-06
4.3800302e-06
5.2694038e-06
5.3855385e-06
5.1365853e-06
4.5509386e-06
4.6515917e-06
5.2598593e-06
4.9050662e-06
5.0145905e-06
8.7367331e-06
8.5674602e-06
8.570837e-06
8.5705064e-06
8.751688e-06
8.6305727e-06
8.5910007e-06
2.4553048e-05
2.6317763e-05
2.489971e-05
2.7507438e-05
1.941774e-05
2.1696091e-05
1.7163567e-05
1.8353171e-05
5.0863245e-06
4.9539946e-06
4.4266712e-06
4.5519384e-06
3.4610126e-06
3.6785259e-06
2.4767403e-05
2.3182975e-05
2.1890034e-05
2.3501856e-05
2.2948393e-05
2.1777668e-05
2.337825e-05
7.5252263e-06
7.9738365e-06
8.1617007e-06
7.6918759e-06
7.7774044e-06
8.2873628e-06
6.9029966e-06
7.7576493e-06
7.5340689e-06
6.7107129e-06
7.1211914e-06
7.331671e-06
4.9834912e-06
5.7402609e-06
5.5347969e-06
4.0188464e-06
4.6724325e-06
5.1565941e-06
5.2311267e-06
5.8432825e-06
5.8910789e-06
5.227318e-06
5.8826829e-06
5.888716e-06
5.1790921e-06
5.7917577e-06
5.8356021e-06
5.1956546e-06
5.8714581e-06
5.8532477e-06
8.7153948e-06
8.0972242e-06
8.6753277e-06
8.7278831e-06
9.2110764e-06
8.7201554e-06
6.0060928e-06
6.3177075e-06
6.5542518e-06
6.1740918e-06
6.9331281e-06
6.7330679e-06
5.1411985e-06
5.7471131e-06
5.1779664e-06
5.4413002e-06
6.0559767e-06
5.3204122e-06
5.1688551e-06
5.3221337e-06
5.884256e-06
8.8077301e-06
0.0011851546
0.0020937452
0.00054859566
8.0422074e-05
4.2020656e-05
7.0355053e-06
6.1880776e-06
0.00011318286
7.2696348e-06
0.00023214325
4.418901e-05
1.6614572e-05
1.7500934e-05
1.1839413e-05
7.8102283e-05
8.4922495e-05
7.4770805e-06
0.00046713697
0.00015358799
6.8877237e-06
6.6360438e-06
5.3198303e-05
8.3351461e-05
3.2930309e-05
9.3855392e-06
2.8182181e-05
6.1850937e-06
6.1826628e-06
1.6204773e-05
0.00020723683
6.8344335e-06
4.1066254e-05
1.5542233e-05
7.5637753e-06
1.0743848e-05
3.3628287e-05
6.662771e-06
4.7870417e-05
4.3506673e-05
1.142273e-05
3.4579971e-05
3.0998309e-05
7.0041998e-06
0.0020648451
0.00078916041
2.4131213e-05
8.1266221e-06
3.9898715e-05
1.1088766e-05
4.9220724e-06
4.6110125e-06
1.712397e-07
1.3630237e-06
9.7047894e-07
1.6339227e-06
4.6640431e-05
0.0014142147
4.0448798e-05
4.5582222e-05
3.839977e-05
3.9000465e-05
3.7930078e-05
3.7591107e-05
3.4708399e-05
3.5167681e-05
3.4278308e-05
3.3810174e-05
3.6566079e-05
3.698292e-05
3.6123522e-05
3.5656965e-05
3.2378951e-05
3.2828511e-05
3.3305192e-05
0.00079023888
0.00046538533
0.00076386453
0.0096668135
0.00063722617
0.0013304272
0.00039208091
5.4143109e-06
1.1902456e-05
0.00011444425
0.0002529059
9.190259e-05
5.011465e-06
0.00018927027
2.2940646e-05
6.913809e-06
2.4441886e-05
4.2610868e-05
6.3600538e-05
1.5267962e-05
3.8777135e-05
2.4282048e-05
5.801113e-06
1.9838759e-05
1.7470282e-05
5.2270394e-06
3.599142e-05
4.8102779e-06
6.5795659e-06
1.8360556e-05
1.776688e-05
0.00095205283
0.00036301945
0.00034955974
0.00062423644
0.00037734851
8.5478961e-07
5.1464785e-06
5.2440847e-06
3.073225e-06
1.3980273e-06
4.5503193e-06
4.4728534e-06
4.877616e-06
5.3893347e-06
4.1414841e-06
4.7928817e-06
4.243099e-06
1.3452571e-08
5.0538744e-06
1.4042031e-08
1.0914529e-08
5.3291288e-06
1.2636882e-08
3.7546033e-06
6.0147005e-08
5.4936893e-09
4.6293648e-06
1.2742918e-08
1.2973115e-08
4.3969026e-06
1.2467801e-08
1.1698276e-08
4.9644558e-06
1.3672499e-08
1.389095e-08
5.4014068e-06
2.1873659e-08
1.24522e-08
4.0064551e-06
5.5506058e-09
4.1816876e-09
5.3921077e-07
4.8004165e-07
4.7102268e-06
1.3432493e-08
1.320536e-08
4.3213378e-06
6.2400006e-09
9.7282616e-09
4.5993423e-07
6.1482259e-07
6.0727296e-07
5.8820123e-07
5.9873679e-07
6.152728e-07
6.3051824e-07
7.6648026e-07
6.722141e-07
4.6312571e-07
4.5981184e-07
6.9402723e-07
5.4846927e-07
5.5809833e-07
5.7793122e-07
5.6794359e-07
5.3858177e-07
5.2507414e-07
4.7786219e-07
5.0122559e-07
1.4370263e-05
1.4385515e-05
1.4381294e-05
1.4375529e-05
1.437945e-05
1.4386572e-05
1.4385118e-05
1.4378231e-05
1.4373349e-05
1.5076409e-05
1.5218519e-05
1.5082122e-05
1.4383662e-05
1.4345661e-05
1.4377647e-05
1.4406543e-05
1.4200896e-05
1.4115954e-05
1.2902097e-05
1.4423016e-05
1.5719609e-05
1.7189476e-05
6.0778804e-06
1.0685685e-06
6.0589072e-06
5.9371804e-06
9.0151044e-07
5.7571372e-06
1.0692254e-06
9.0166545e-07
5.2124191e-06
1.0565833e-06
4.9781971e-06
8.939329e-07
8.9628733e-07
5.2022733e-06
4.971629e-06
1.2492736e-06
1.1926998e-06
1.2543208e-06
1.2706109e-06
7.886248e-07
9.2856158e-07
5.2396062e-06
1.0613847e-06
5.2146953e-06
7.9828864e-07
9.0045264e-07
9.0485826e-07
1.1100311e-06
1.1728351e-06
1.420387e-06
1.0892262e-06
8.7164868e-07
1.9293502e-06
1.9267101e-06
1.668775e-06
1.9158301e-06
1.9288266e-06
1.9503341e-06
1.951988e-06
8.5163618e-07
8.9974826e-07
1.6290948e-06
1.5390545e-06
1.4343443e-06
1.5118773e-06
1.0801837e-06
1.3055454e-06
1.4096635e-06
1.3331856e-06
8.9839394e-07
5.498385e-06
5.485982e-06
1.4456909e-06
1.0668913e-06
1.4582295e-06
6.108478e-06
1.9510975e-06
1.9518281e-06
1.6964318e-06
1.9310951e-06
1.9398453e-06
1.6725591e-06
5.5899491e-06
1.5820116e-06
1.4218474e-06
1.0799037e-06
1.3176024e-06
9.3560487e-07
1.4352325e-06
1.0126248e-06
6.095148e-06
1.4709716e-06
1.5059807e-06
1.4415199e-06
1.4148045e-06
5.3959172e-06
1.4742908e-06
1.5540937e-06
1.272172e-06
1.2945526e-06
4.6790357e-06
1.448367e-06
1.3444867e-06
1.0253072e-06
1.1186503e-06
1.2503043e-06
1.2289431e-06
7.8827881e-07
1.0660255e-06
1.4449594e-06
1.4571134e-06
1.8249634e-06
2.0461173e-06
1.9292975e-06
2.0452499e-06
1.9281901e-06
2.0424252e-06
2.0440571e-06
1.4742306e-05
1.5345215e-05
1.4783255e-05
1.5319022e-05
1.5887133e-06
1.7261883e-06
1.6376249e-06
1.606947e-06
1.551962e-06
1.8121861e-06
1.7977778e-06
1.7084469e-06
1.512747e-05
1.5312636e-05
1.5203052e-05
1.5240817e-05
2.0471027e-06
1.9308e-06
2.0494921e-06
1.9377861e-06
2.0751561e-06
2.0564064e-06
1.5097764e-05
1.5207604e-05
1.5087198e-05
1.5209761e-05
1.4794695e-05
1.5353788e-05
1.4822084e-05
1.5269989e-05
1.6628354e-05
1.6278389e-06
1.1527837e-05
2.4969637e-06
1.8464894e-06
2.107828e-06
2.1178578e-06
1.5522582e-06
1.5966141e-06
1.5217128e-06
1.3648441e-06
1.389423e-06
1.5670704e-06
1.4672859e-06
1.4938839e-06
1.3408102e-06
1.3174359e-06
1.3675564e-06
1.4596513e-06
1.391639e-06
1.4413919e-06
1.4854583e-06
1.4162461e-06
1.0347153e-06
1.2184663e-06
1.1731396e-06
1.1671544e-06
1.1474131e-06
1.272306e-06
1.2500429e-06
1.2213696e-06
1.3440723e-06
1.3846559e-06
1.3209709e-06
1.1873968e-06
1.2079738e-06
1.359012e-06
1.2748509e-06
1.2980864e-06
1.0681062e-06
1.1937835e-06
1.1938452e-06
1.0706776e-06
1.1934597e-06
1.1950394e-06
1.0439262e-06
1.1787871e-06
1.1588868e-06
1.0635836e-06
1.1857189e-06
1.1886827e-06
1.0675753e-06
1.1925631e-06
1.1932963e-06
1.0738949e-06
1.2112086e-06
1.2005158e-06
1.0111355e-06
9.9435809e-07
1.1077915e-06
1.0649531e-06
1.1916026e-06
1.1903634e-06