/*--------------------------------*- C++ -*----------------------------------*\
  =========                 |
  \\      /  F ield         | OpenFOAM: The Open Source CFD Toolbox
   \\    /   O peration     | Website:  https://openfoam.org
    \\  /    A nd           | Version:  8
     \\/     M anipulation  |
\*---------------------------------------------------------------------------*/
/*   Windows 32 and 64 bit porting by blueCAPE: http://www.bluecape.com.pt   *\
|  Based on Windows porting (2.0.x v4) by Symscape: http://www.symscape.com   |
\*---------------------------------------------------------------------------*/
FoamFile
{
    version     2.0;
    format      ascii;
    class       labelListList;
    location    "constant/vegetation";
    object      globalFaceFaces;
}
// * * * * * * * * * * * * * * * * * * * * * * * * * * * * * * * * * * * * * //


578
(

2221
(
2
3
4
5
6
7
8
9
10
11
12
13
14
15
16
17
18
19
20
21
22
23
24
25
26
27
28
29
30
31
32
33
34
35
36
37
38
39
40
41
42
43
44
45
46
47
48
49
50
51
52
53
54
55
56
57
58
59
60
61
62
63
64
65
66
67
68
69
70
71
72
73
74
75
76
77
78
79
80
81
82
83
84
85
86
87
88
89
90
91
92
93
94
95
96
97
98
99
100
101
102
103
104
105
106
107
110
120
134
135
136
194
195
196
330
333
338
342
343
344
345
346
347
348
350
352
356
360
364
368
372
376
380
384
388
392
396
397
398
399
400
401
402
403
404
405
406
407
408
409
410
411
412
413
414
415
416
417
418
419
420
421
422
423
424
425
426
427
428
429
431
432
441
442
443
444
445
446
447
448
449
450
455
456
457
458
459
460
461
462
463
464
465
466
467
478
479
480
481
482
483
513
514
515
516
517
518
519
520
521
567
568
569
570
577
578
579
580
633
634
635
636
637
638
639
640
641
642
643
644
645
646
647
648
649
650
651
652
653
654
655
656
657
658
659
660
661
662
663
664
665
666
667
668
669
670
671
672
673
674
675
676
677
678
679
680
681
682
683
684
685
686
687
739
740
741
742
743
744
747
749
750
751
752
753
754
755
756
757
759
761
763
765
767
769
771
773
775
777
779
780
781
782
783
784
785
786
787
788
789
790
791
792
793
794
795
796
797
798
799
800
801
802
807
808
809
810
811
814
815
816
817
818
819
820
821
822
823
824
825
826
827
828
829
830
831
832
833
834
835
836
837
838
839
840
846
847
848
849
850
851
852
853
854
855
856
857
895
896
897
898
899
900
901
902
903
904
905
906
907
911
912
913
914
915
916
917
918
919
920
921
922
923
924
951
952
953
954
955
956
957
958
959
960
961
962
963
964
965
966
967
968
969
970
971
972
974
976
977
979
980
981
982
984
985
986
987
988
989
990
1001
1002
1003
1004
1007
1009
1020
1021
1022
1028
1066
1068
1070
1072
1074
1075
1076
1077
1078
1079
1080
1087
1088
1089
1093
1094
1095
1096
1097
1098
1099
1100
1101
1102
1103
1104
1105
1106
1107
1108
1109
1122
1123
1124
1125
1173
1174
1175
1178
1179
1189
1190
1191
1192
1193
1194
1195
1196
1197
1198
1199
1200
1201
1202
1203
1204
1205
1206
1213
1214
1215
1216
1217
1221
1222
1223
1224
1225
1226
1227
1228
1229
1230
1231
1232
1233
1234
1235
1236
1237
1266
1267
1280
1281
1282
1283
1284
1302
1303
1304
1305
1306
1307
1308
1309
1310
1311
1312
1313
1331
1332
1333
1344
1345
1346
1347
1348
1349
1350
1351
1352
1353
1354
1355
1356
1361
1387
1394
1395
1396
1397
1398
1399
1400
1401
1402
1403
1404
1405
1406
1407
1408
1415
1416
1417
1418
1419
1420
1421
1422
1423
1424
1429
1430
1431
1432
1436
1447
1448
1449
1450
1451
1452
1453
1460
1461
1462
1463
1464
1465
1466
1467
1471
1472
1473
1474
1478
1479
1484
1485
1486
1487
1490
1491
1492
1493
1494
1495
1496
1497
1498
1499
1500
1501
1502
1503
1504
1505
1506
1507
1508
1509
1510
1511
1512
1513
1514
1515
1520
1521
1522
1523
1527
1528
1529
1530
1531
1532
1533
1534
1535
1536
1537
1538
1539
1548
1549
1550
1551
1552
1553
1554
1555
1556
1557
1558
1559
1560
1563
1564
1565
1598
1599
1600
1601
1602
1603
1604
1605
1606
1607
1608
1609
1630
1631
1633
1638
1639
1640
1641
1642
1643
1644
1645
1646
1647
1648
1649
1650
1651
1652
1653
1654
1655
1656
1681
1682
1683
1684
1685
1688
1689
1690
1691
1692
1693
1714
1715
1716
1717
1718
1719
1720
1721
1722
1723
1724
1725
1726
1727
1728
1729
1730
1731
1734
1737
1738
1739
1740
1741
1743
1744
1746
1749
1750
1751
1752
1753
1755
1756
1762
1763
1764
1765
1766
1768
1770
1772
1774
1776
1778
1779
1780
1781
1782
1785
1786
1789
1790
1792
1793
1800
1801
1804
1805
1806
1807
1808
1809
1810
1811
1812
1813
1814
1815
1816
1817
1818
1819
1820
1821
1822
1829
1831
1832
1833
1834
1835
1836
1837
1850
1851
1852
1853
1854
1855
1856
1857
1888
1889
1922
1923
1924
1925
1926
1927
1928
1929
1930
1931
1972
1973
1974
1975
1996
1997
1998
1999
2000
2001
2002
2003
2004
2005
2006
2007
2008
2009
2010
2011
2012
2013
2228
2230
2232
2234
2240
2246
2267
2269
2271
3393
3394
3395
3396
3397
3398
3399
3400
3402
3403
3404
3405
3406
3407
3408
3409
3410
3411
3412
3413
3414
3415
3416
3417
3418
3419
3420
3421
3422
3423
3424
3425
3426
3427
3428
3429
3430
3431
3432
3433
3434
3435
3436
3437
3438
3439
3440
3441
3442
3443
3444
3445
3446
3447
3448
3449
3450
3457
3458
3459
3460
3461
3462
3463
3464
3465
3466
3467
3468
3469
3470
3471
3472
3473
3474
3475
3476
3477
3478
3479
3480
3481
3482
3483
3484
3485
3486
3487
3488
3489
3490
3491
3492
3493
3494
3495
3496
3497
3498
3499
3500
3501
3502
3503
3504
3505
3506
3507
3508
3509
3510
3511
3512
3513
3514
3515
3516
3517
3518
3519
3520
3521
3522
3523
3524
3525
3599
3600
3601
3602
3603
3604
3605
3606
3607
3608
3609
3610
3611
3612
3613
3614
3615
3616
3617
3618
3619
3620
3621
3622
3623
3624
3625
3626
3627
3628
3629
3630
3631
3632
3633
3634
3635
3636
3637
3638
3639
3640
3641
3642
3643
3644
3645
3646
3647
3648
3649
3650
3651
3652
3653
3654
3655
3656
3657
3658
3659
3660
3661
3662
3663
3664
3665
3666
3667
3668
3669
3670
3671
3672
3673
3674
3675
3676
3677
3678
3679
3680
3681
3682
3684
3685
3686
3687
3688
3689
3690
3691
3692
3693
3694
3695
3696
3697
3699
3700
3701
3702
3703
3704
3705
3706
3707
3708
3709
3710
3711
3714
3715
3716
3717
3718
3719
3720
3721
3722
3723
3724
3725
3726
3727
3728
3730
3731
3732
3733
3734
3735
3736
3737
3738
3739
3740
3741
3742
3743
3744
3745
3746
3747
3748
3749
3750
3751
3752
3753
3754
3755
3756
3757
3758
3765
3766
3767
3769
3770
3771
3772
3773
3778
3779
3780
3781
3782
3783
3794
3796
3797
3798
3799
3800
3801
3802
3803
3804
3805
3806
3807
3808
3809
3810
3811
3812
3813
3814
3815
3816
3817
3818
3819
3820
3821
3822
3823
3824
3825
3826
3827
3828
3829
3830
3831
3832
3833
3834
3835
3836
3837
3838
3839
3840
3841
3842
3843
3844
3845
3846
3847
3848
3849
3850
3851
3852
3853
3854
3855
3856
3857
3858
3859
3860
3873
3874
3875
3876
3877
3878
3879
3880
3881
3882
3883
3884
3885
3886
3887
3888
3889
3890
3891
3892
3893
3894
3895
3896
3897
3898
3899
3900
3901
3902
3903
3904
3905
3906
3907
3908
3909
3910
3911
3912
3913
3914
3915
3916
3917
3918
3919
3920
3921
3922
3923
3924
3925
3926
3927
3928
3929
3930
3931
3932
3933
3934
3935
3936
3937
3938
3939
3940
3941
3942
3943
3944
3953
3954
3955
3956
3957
3958
3961
3963
3964
3967
3968
4028
4539
4540
4541
4543
4544
4545
4546
4547
4548
4549
4550
4551
4553
4554
4555
4556
4557
4558
4559
4560
4561
4562
4563
4564
4565
4567
4568
4569
4573
4577
4579
4580
4582
4583
4586
4587
4588
4591
4592
4593
4594
4595
4596
4597
4613
4614
4615
4616
4618
4640
4643
4644
4645
4646
4648
4649
4650
4651
4652
4653
4657
4669
4670
4671
4672
4673
4674
4675
4676
4677
4681
4682
4683
4684
4685
4686
4687
4688
4689
4690
4691
4695
4697
4712
4714
4718
4799
5091
5092
5093
5094
5095
5097
5098
5100
5101
5102
5103
5104
5105
5106
5108
5109
5111
5112
5113
5115
5116
5117
5118
5119
5120
5121
5122
5125
5126
5127
5128
5129
5130
5155
5156
5157
5158
5159
5160
5161
5162
5163
5164
5165
5166
5167
5168
5169
5170
5171
5173
5174
5175
5176
5177
5178
5181
5182
5183
5184
5185
5186
5187
5190
5191
5192
5194
5195
5196
5197
5198
5199
5200
5205
5206
5207
5210
5211
5212
5213
5214
5220
5221
5222
5223
5226
5227
5228
5229
5547
5548
5549
5550
5552
5555
5556
5557
5558
5559
5560
5562
5565
5566
5567
5571
5572
5573
5574
5577
5578
5579
5580
5581
5582
5583
5584
5585
5586
5587
5588
5589
5590
5591
5592
5593
5595
5596
5598
5599
5600
5601
5602
5603
5604
5605
5607
5608
5613
5614
5615
5616
5617
5618
5619
5620
5622
5623
5624
5625
5626
5628
5629
5630
5631
5632
5634
5635
5637
5638
5639
5640
5641
5643
5644
5645
5646
5647
5650
5652
5653
5654
5655
5656
5657
5658
5660
5661
5662
5663
5664
5665
5671
5672
5673
5675
5676
5677
5678
5679
5682
5683
5684
5685
5686
5689
5690
5691
5693
5694
5695
5696
5697
5700
5701
5702
5703
5704
5705
5707
5708
5709
5710
5711
5713
5714
5715
5716
5717
5718
5719
5720
5721
5722
5723
5725
5726
5727
5728
5729
5731
5732
5733
5734
5735
5736
5737
5738
5740
5741
5743
5744
5745
5746
5747
5748
5749
5750
5752
5753
5754
5755
5756
5760
5761
5762
5764
5775
5776
5777
5796
5797
5798
5799
5804
5805
5806
5807
5812
5813
5824
5825
5827
5828
5846
5847
5848
5849
5850
5851
5852
5853
5854
5855
5856
5857
5858
5859
5860
5861
5862
5863
5864
5875
5876
5877
5878
5879
5880
5883
5884
5885
5886
5887
5888
5889
5890
5891
5892
5893
5894
5900
5901
5902
5903
5904
5905
5908
5909
5910
5911
5912
5913
5916
5917
5918
5919
5920
5921
5922
5923
5924
5925
5960
5962
5963
5964
5965
5966
5969
5971
5974
5975
5976
5977
5979
5987
5989
5990
5991
5992
5993
5994
5996
5997
5998
6001
6003
6004
6006
6007
6008
6011
6012
6013
6014
6015
6016
6022
6023
6026
6027
6029
6030
6031
6036
6039
6040
6042
6043
6044
6046
6047
6048
6049
6050
6051
6052
6056
6203
6316
6914
6915
6916
6920
6922
7024
7025
7036
7037
7115
7116
7117
7118
7132
7137
7138
7300
7301
7302
8289
8290
8291
8292
8293
8294
8295
8296
8297
8298
8299
8300
8301
8302
8303
8304
8305
8306
8307
8308
8309
8310
8311
8312
8313
8314
8315
8316
8317
8318
8319
8320
8321
8322
8323
8324
8325
8326
8327
8328
8329
8330
8331
8332
8333
8334
8335
8336
8337
8338
8339
8340
8341
8342
8343
8344
8345
8346
8347
8348
8349
8350
8351
8352
8353
8354
8355
8356
8357
8358
8359
8360
8361
8362
8363
8364
8365
8366
8367
8368
8369
8370
8371
8372
8373
8374
8375
8376
8377
8378
8379
8380
8381
8382
8383
8384
8385
8447
8448
8449
8450
8454
8455
8456
8457
8499
8501
8502
8504
8511
8512
8513
8514
8517
8518
8519
8520
8617
8620
8668
8669
8670
8671
8672
8673
8674
8675
8677
8679
8680
8682
8683
8684
8685
8686
8687
8688
8689
8690
8691
8692
8693
8694
8695
8696
8697
8698
8699
8700
8703
8704
8705
8706
8709
8710
8711
8712
8713
8714
8715
8716
8717
8718
8719
8720
8721
8722
8723
8724
8726
8727
8728
8729
8730
8731
8732
8733
8734
8735
8736
8737
8738
8739
8740
8741
8742
8746
8747
8748
8749
8753
8754
8756
8757
8758
8759
8760
8762
8763
8764
8765
8766
8768
8769
8771
8772
8773
8774
8775
8776
8778
8789
8790
8791
8792
8793
8794
8805
8806
8807
8808
8813
8814
8815
8817
8818
8819
8820
8821
8822
8823
8824
8825
8826
8827
8828
8829
8830
8831
8832
8833
8834
8835
8836
8837
8838
8839
8841
8842
8843
8844
8845
8846
8847
8896
8897
8898
8900
8901
8902
8903
8904
8906
8907
8908
8909
8910
8911
8912
8913
8914
8915
8916
8918
8919
8920
8921
8922
8923
8924
8925
8927
8928
8929
8930
8931
8934
8935
8936
8937
8938
8939
8940
8941
8942
8943
8944
8945
8946
8947
8948
8950
8951
8952
8953
8954
8955
8956
8957
8958
8962
8963
8964
8965
8966
8971
8972
8973
8974
8975
8977
8978
8980
8981
8982
8983
8984
8985
8986
8987
8988
8989
8990
8991
8992
8994
8995
8996
8997
9002
9003
9007
9008
9035
9036
9044
9046
9048
9049
9050
9051
9052
9053
9054
9055
9056
9057
9058
9059
9060
9061
9062
9063
9064
9065
9066
9070
9071
9072
9073
9074
9075
9076
9077
9078
9079
9080
9081
9082
9083
9084
9085
9086
9087
9088
9089
9090
9101
9102
9103
9104
9105
9106
9111
9117
9118
9119
9120
9121
9122
9123
9124
9161
9162
9163
9164
9165
9166
9167
9168
9169
9170
9171
9172
9175
9176
9177
9178
9179
9180
9243
9244
9245
9246
9247
10189
11347
11349
11350
)


1568
(
2
3
4
5
6
7
8
9
10
11
12
13
14
15
16
17
19
20
21
23
24
25
26
27
28
29
30
31
32
33
34
35
36
37
38
39
40
41
42
43
44
45
46
47
48
49
50
51
52
53
54
55
56
57
58
59
60
61
62
63
64
65
66
67
68
69
70
71
72
73
74
75
76
77
78
79
80
81
82
83
84
85
86
87
88
89
90
91
92
93
94
95
96
97
98
99
100
101
102
103
104
105
106
107
110
120
134
135
136
194
195
196
330
333
338
342
343
344
345
346
347
348
350
352
356
360
364
368
372
376
380
384
388
392
396
397
398
399
400
401
402
403
404
405
406
407
408
409
410
411
412
413
414
415
416
417
418
419
420
421
422
423
424
425
426
427
428
429
431
432
441
442
443
444
445
446
447
448
449
450
455
456
457
458
459
460
461
462
463
464
465
466
467
478
479
480
481
482
483
513
514
515
516
517
518
519
520
521
567
568
569
570
577
578
579
580
633
634
635
636
637
638
639
640
641
642
643
644
645
646
647
648
649
650
651
652
653
654
655
656
657
658
659
660
661
662
663
664
665
666
667
668
669
670
671
672
673
674
675
676
677
678
679
680
681
682
683
684
685
686
687
739
740
741
742
743
744
747
749
750
751
752
753
754
755
756
757
759
761
763
765
767
769
771
773
775
777
779
780
781
782
783
784
785
786
787
788
789
790
791
792
793
794
795
796
797
798
799
800
801
802
807
808
809
810
811
814
815
816
817
818
819
820
821
822
823
824
825
826
827
828
829
830
831
832
833
834
835
836
837
838
839
840
846
847
848
849
850
851
852
853
854
855
856
857
895
896
897
898
899
900
901
902
903
904
905
906
907
911
912
913
914
915
916
917
918
919
920
921
922
923
924
951
952
953
954
955
956
957
958
959
960
961
962
963
964
965
966
967
968
969
970
971
974
976
977
979
980
981
982
984
985
986
987
988
989
990
1001
1002
1003
1004
1005
1007
1008
1009
1011
1014
1020
1021
1022
1028
1066
1068
1070
1072
1074
1075
1076
1077
1078
1079
1080
1087
1088
1089
1093
1094
1095
1096
1097
1098
1099
1100
1101
1102
1103
1104
1105
1106
1107
1108
1109
1122
1123
1124
1125
1173
1174
1175
1176
1177
1178
1179
1180
1184
1185
1188
1189
1190
1191
1192
1193
1194
1195
1196
1197
1198
1199
1200
1201
1202
1203
1204
1205
1206
1213
1214
1215
1216
1217
1221
1222
1223
1224
1225
1226
1227
1228
1229
1230
1231
1232
1233
1234
1235
1236
1237
1266
1267
1280
1281
1282
1283
1284
1302
1303
1304
1305
1306
1307
1308
1309
1310
1311
1312
1313
1331
1332
1333
1344
1345
1346
1347
1348
1349
1350
1351
1352
1353
1354
1355
1356
1361
1387
1394
1395
1396
1397
1398
1399
1400
1401
1402
1403
1404
1405
1406
1407
1408
1415
1416
1417
1418
1419
1420
1421
1422
1423
1424
1429
1430
1431
1432
1436
1447
1448
1449
1450
1451
1452
1453
1460
1461
1462
1463
1464
1465
1466
1467
1471
1472
1473
1474
1478
1479
1484
1485
1486
1487
1490
1491
1492
1493
1494
1495
1496
1497
1498
1499
1500
1501
1502
1503
1504
1505
1506
1507
1508
1509
1510
1511
1512
1513
1514
1515
1520
1521
1522
1523
1527
1528
1529
1530
1531
1532
1533
1534
1535
1536
1537
1538
1539
1548
1549
1550
1551
1552
1553
1554
1555
1556
1557
1558
1559
1560
1563
1564
1565
1598
1599
1600
1601
1602
1603
1604
1605
1606
1607
1608
1609
1630
1631
1632
1633
1636
1638
1639
1640
1641
1642
1643
1644
1645
1646
1647
1648
1649
1650
1651
1652
1653
1654
1655
1656
1678
1680
1681
1682
1683
1684
1685
1686
1687
1688
1689
1690
1691
1692
1693
1714
1715
1716
1717
1718
1719
1720
1721
1722
1723
1724
1725
1726
1727
1728
1729
1730
1731
1734
1735
1736
1737
1738
1739
1740
1741
1742
1743
1744
1745
1746
1747
1748
1749
1750
1751
1752
1753
1754
1755
1756
1757
1762
1763
1764
1765
1766
1767
1768
1769
1770
1771
1772
1773
1774
1775
1776
1777
1778
1779
1780
1781
1782
1783
1784
1785
1786
1789
1790
1792
1793
1800
1801
1804
1805
1806
1807
1808
1809
1810
1811
1812
1813
1814
1815
1816
1817
1818
1819
1820
1821
1822
1828
1829
1830
1831
1832
1833
1834
1835
1836
1837
1850
1851
1852
1853
1854
1855
1856
1857
1888
1889
1911
1912
1918
1921
1922
1923
1924
1925
1926
1927
1928
1929
1930
1931
1953
1954
1956
1959
1972
1973
1974
1975
1981
1983
1985
1986
1989
1991
1993
1995
1996
1997
1998
1999
2000
2001
2002
2003
2004
2005
2006
2007
2008
2009
2010
2011
2012
2013
2228
2230
2232
2234
2240
2246
2267
2269
3393
3394
3395
3396
3397
3398
3399
3400
3402
3403
3404
3405
3406
3407
3408
3409
3410
3411
3412
3413
3415
3416
3417
3418
3419
3420
3421
3422
3423
3424
3425
3426
3427
3428
3429
3430
3431
3432
3433
3434
3435
3437
3438
3439
3440
3441
3442
3443
3444
3445
3446
3447
3448
3449
3450
3457
3458
3459
3460
3461
3462
3463
3464
3465
3466
3467
3468
3469
3470
3471
3472
3473
3474
3475
3476
3477
3478
3479
3480
3481
3482
3483
3484
3485
3486
3487
3488
3489
3490
3491
3492
3493
3494
3495
3496
3497
3498
3499
3500
3501
3502
3503
3504
3505
3506
3507
3508
3509
3510
3511
3512
3513
3514
3515
3516
3517
3518
3519
3520
3521
3522
3523
3524
3525
3599
3600
3601
3602
3603
3604
3605
3606
3607
3608
3609
3610
3611
3612
3613
3614
3615
3616
3617
3618
3619
3620
3621
3622
3623
3624
3625
3626
3627
3628
3629
3630
3631
3632
3633
3634
3635
3636
3637
3638
3639
3640
3641
3642
3643
3644
3645
3646
3647
3648
3649
3650
3651
3652
3653
3654
3655
3656
3657
3658
3659
3660
3661
3662
3663
3664
3665
3666
3667
3668
3669
3670
3671
3672
3673
3674
3675
3676
3677
3678
3679
3680
3681
3682
3684
3685
3686
3687
3688
3689
3690
3691
3692
3693
3694
3695
3696
3697
3699
3700
3701
3702
3703
3704
3705
3706
3707
3708
3709
3710
3711
3714
3715
3716
3717
3718
3719
3720
3721
3722
3723
3724
3725
3726
3727
3728
3730
3731
3732
3733
3734
3735
3736
3737
3738
3739
3740
3741
3742
3743
3744
3745
3746
3747
3748
3749
3750
3751
3752
3753
3754
3755
3756
3757
3758
3765
3766
3767
3769
3770
3771
3772
3773
3778
3779
3780
3781
3782
3783
3794
3796
3797
3798
3799
3800
3801
3802
3803
3804
3805
3806
3807
3808
3809
3810
3811
3812
3813
3814
3815
3816
3817
3818
3819
3820
3821
3822
3823
3824
3825
3826
3827
3828
3829
3830
3831
3832
3833
3834
3835
3836
3837
3838
3839
3840
3841
3842
3843
3844
3845
3846
3847
3848
3849
3850
3851
3852
3853
3854
3855
3856
3857
3858
3859
3860
3873
3874
3875
3876
3877
3878
3879
3880
3881
3882
3883
3884
3885
3886
3887
3888
3889
3890
3891
3892
3893
3894
3895
3896
3897
3898
3899
3900
3901
3902
3903
3904
3905
3906
3907
3908
3909
3910
3911
3912
3913
3914
3915
3916
3917
3918
3919
3920
3921
3922
3923
3924
3925
3926
3927
3928
3929
3930
3931
3932
3933
3934
3935
3936
3937
3938
3939
3940
3941
3942
3943
3944
3953
3954
3955
3956
3957
3958
3963
3964
3967
3971
3974
3978
3986
3997
4005
4006
4015
4024
4026
4452
4454
4539
4540
4541
4543
4544
4545
4546
4547
4548
4549
4550
4551
4553
4554
4556
4557
4558
4559
4560
4561
4562
4563
4564
4567
4568
4569
4573
4577
4579
4580
4582
4583
4587
4588
4591
4592
4593
4595
4596
4597
5091
5092
5093
5094
5095
5097
5098
5100
5101
5102
5103
5104
5105
5106
5109
5111
5112
5113
5115
5116
5117
5118
5119
5120
5121
5122
5125
5126
5127
5129
5155
5156
5157
5158
5159
5160
5162
5163
5164
5165
5167
5170
5173
5174
5175
5178
5181
5184
5190
5197
5200
5205
5962
5963
5964
5965
5966
5969
5971
5974
5975
5976
5977
5987
5989
5990
5991
5992
5993
5996
5997
5998
6003
6004
6006
6011
6013
6014
6022
6027
6029
6030
6031
6036
6039
6042
6043
6044
6047
6048
6049
6050
6051
6052
8289
8290
8291
8292
8293
8294
8295
8296
8297
8298
8299
8300
8301
8302
8303
8304
8305
8306
8307
8308
8309
8310
8311
8312
8313
8314
8315
8316
8317
8320
8323
8324
8325
8326
8327
8328
8329
8330
8331
8332
8333
8334
8335
8336
8337
8338
8339
8340
8341
8342
8343
8344
8345
8346
8347
8348
8349
8350
8351
8352
8353
8354
8355
8356
8357
8358
8359
8360
8361
8362
8363
8364
8365
8366
8375
8376
8377
8378
8379
8382
8383
8384
8385
8690
8695
)


1823
(
0
1
2
3
4
5
6
9
10
13
16
17
18
19
20
21
22
23
972
973
974
976
2088
3391
3392
3394
3395
3396
3397
3398
3399
3400
3401
3402
3403
3404
3405
3406
3407
3408
3409
3410
3411
3412
3413
3414
3415
3416
3417
3418
3419
3420
3421
3422
3423
3424
3425
3426
3427
3428
3429
3430
3431
3432
3433
3434
3435
3436
3437
3438
3439
3440
3441
3442
3443
3444
3445
3446
3447
3448
3449
3450
3457
3458
3459
3460
3461
3462
3463
3464
3465
3466
3467
3468
3469
3470
3471
3472
3473
3474
3475
3476
3477
3478
3479
3480
3481
3482
3483
3484
3485
3486
3487
3488
3489
3490
3491
3492
3493
3494
3495
3496
3497
3498
3499
3500
3501
3502
3503
3504
3505
3506
3507
3508
3509
3510
3511
3512
3513
3514
3515
3516
3517
3518
3519
3520
3521
3522
3523
3524
3525
3599
3600
3601
3602
3603
3604
3605
3606
3607
3608
3609
3610
3611
3612
3613
3614
3615
3616
3617
3618
3619
3620
3621
3622
3623
3624
3625
3626
3627
3628
3629
3630
3631
3632
3633
3634
3635
3636
3637
3638
3639
3640
3641
3642
3643
3644
3645
3646
3647
3648
3649
3650
3651
3652
3653
3654
3655
3656
3657
3658
3659
3660
3661
3662
3663
3664
3665
3666
3667
3668
3669
3670
3671
3672
3673
3674
3675
3676
3677
3678
3679
3680
3681
3682
3684
3685
3686
3687
3688
3689
3690
3691
3692
3693
3694
3695
3696
3697
3699
3700
3701
3702
3703
3704
3705
3706
3707
3708
3709
3710
3711
3714
3715
3716
3717
3718
3719
3720
3721
3722
3723
3724
3725
3726
3727
3728
3730
3731
3732
3733
3734
3735
3736
3737
3738
3739
3740
3741
3742
3743
3744
3745
3746
3747
3748
3749
3750
3751
3752
3753
3754
3755
3756
3757
3758
3765
3766
3767
3769
3770
3771
3772
3773
3778
3779
3780
3781
3782
3783
3794
3796
3797
3798
3799
3800
3801
3802
3803
3804
3805
3806
3807
3808
3809
3810
3811
3812
3813
3814
3815
3816
3817
3818
3819
3820
3821
3822
3823
3824
3825
3826
3827
3828
3829
3830
3831
3832
3833
3834
3835
3836
3837
3838
3839
3840
3841
3842
3843
3844
3845
3846
3847
3848
3849
3850
3851
3852
3853
3854
3855
3856
3857
3858
3859
3860
3873
3874
3875
3876
3877
3878
3879
3880
3881
3882
3883
3884
3885
3886
3887
3888
3889
3890
3891
3892
3893
3894
3895
3896
3897
3898
3899
3900
3901
3902
3903
3904
3905
3906
3907
3908
3909
3910
3911
3912
3913
3914
3915
3916
3917
3918
3919
3920
3921
3922
3923
3924
3925
3926
3927
3928
3929
3930
3931
3932
3933
3934
3935
3936
3937
3938
3939
3940
3941
3942
3943
3944
3953
3954
3955
3956
3957
3958
3961
3962
3963
3964
3966
3967
3968
3969
3970
3977
3979
3983
3989
3990
3994
3996
3998
3999
4001
4005
4006
4007
4009
4010
4012
4015
4017
4018
4019
4024
4027
4028
4451
4453
4459
4477
4491
4515
4516
4530
4540
4541
4542
4543
4544
4545
4546
4547
4548
4549
4550
4551
4552
4553
4554
4556
4557
4558
4559
4560
4561
4562
4563
4564
4567
4568
4569
4570
4571
4572
4573
4574
4575
4576
4577
4579
4580
4581
4582
4583
4584
4587
4588
4589
4590
4591
4592
4593
4595
4596
4597
4598
4599
4600
4601
4602
4603
4604
4606
4607
4608
4611
4613
4614
4615
4616
4617
4618
4620
4621
4622
4629
4630
4631
4636
4638
4639
4640
4642
4643
4644
4645
4646
4647
4648
4649
4650
4651
4652
4653
4654
4655
4656
4657
4658
4659
4660
4661
4662
4663
4664
4665
4666
4667
4668
4669
4670
4671
4672
4673
4674
4675
4676
4677
4678
4679
4680
4681
4682
4683
4684
4685
4686
4687
4688
4689
4690
4691
4692
4693
4694
4695
4696
4697
4698
4700
4701
4703
4704
4705
4706
4711
4712
4713
4714
4715
4718
4726
4736
4742
4743
4750
4756
4764
4773
4774
4782
4790
4795
4799
4817
4818
4820
4851
4873
4919
4994
4997
4999
5043
5048
5049
5091
5092
5093
5094
5095
5097
5098
5100
5101
5102
5103
5104
5105
5106
5108
5109
5111
5112
5113
5115
5116
5117
5118
5119
5120
5121
5122
5124
5125
5126
5127
5128
5129
5130
5155
5156
5157
5158
5159
5160
5161
5162
5163
5164
5165
5166
5167
5168
5169
5170
5171
5173
5174
5175
5176
5177
5178
5179
5180
5181
5182
5183
5184
5185
5186
5187
5188
5189
5190
5191
5192
5194
5195
5196
5197
5198
5199
5200
5201
5202
5203
5204
5205
5206
5207
5210
5211
5212
5213
5214
5215
5216
5217
5220
5221
5222
5223
5224
5225
5226
5227
5228
5229
5547
5548
5549
5550
5551
5552
5553
5554
5555
5556
5557
5558
5559
5560
5561
5562
5563
5564
5565
5566
5567
5568
5569
5570
5571
5572
5573
5574
5575
5576
5577
5578
5579
5580
5581
5582
5583
5584
5585
5586
5587
5588
5589
5590
5591
5592
5593
5594
5595
5596
5598
5599
5600
5601
5602
5603
5604
5605
5607
5608
5609
5610
5611
5613
5614
5615
5616
5617
5618
5619
5620
5622
5623
5624
5625
5626
5628
5629
5630
5631
5632
5634
5635
5637
5638
5639
5640
5641
5643
5644
5645
5646
5647
5650
5652
5653
5654
5655
5656
5657
5658
5660
5661
5662
5663
5664
5665
5666
5667
5668
5669
5670
5671
5672
5673
5675
5676
5677
5678
5679
5680
5682
5683
5684
5685
5686
5689
5690
5691
5693
5694
5695
5696
5697
5700
5701
5702
5703
5704
5705
5707
5708
5709
5710
5711
5713
5714
5715
5716
5717
5718
5719
5720
5721
5722
5723
5725
5726
5727
5728
5729
5731
5732
5733
5734
5735
5736
5737
5738
5740
5741
5743
5744
5745
5746
5747
5748
5749
5750
5752
5753
5754
5755
5756
5757
5758
5759
5760
5761
5762
5763
5764
5765
5766
5767
5768
5772
5773
5774
5775
5776
5777
5778
5779
5780
5781
5782
5783
5796
5797
5798
5799
5800
5801
5802
5803
5804
5805
5806
5807
5808
5809
5810
5812
5813
5814
5815
5818
5819
5820
5824
5825
5826
5827
5828
5844
5845
5846
5847
5848
5849
5850
5851
5852
5853
5854
5855
5856
5857
5858
5859
5860
5861
5862
5863
5864
5869
5870
5871
5872
5873
5874
5875
5876
5877
5878
5879
5880
5883
5884
5885
5886
5887
5888
5889
5890
5891
5892
5893
5894
5900
5901
5902
5903
5904
5905
5908
5909
5910
5911
5912
5913
5916
5917
5918
5919
5920
5921
5922
5923
5924
5925
5926
5927
5928
5929
5930
5931
5932
5933
5934
5935
5936
5960
5963
5964
5965
5966
5969
5970
5971
5972
5974
5975
5976
5977
5979
5982
5986
5987
5989
5990
5991
5992
5993
5994
5995
5996
5997
5998
6001
6002
6003
6004
6005
6006
6007
6008
6009
6010
6011
6012
6013
6014
6015
6016
6017
6018
6022
6023
6024
6025
6026
6027
6028
6029
6030
6031
6034
6036
6039
6040
6041
6042
6043
6044
6045
6046
6047
6048
6049
6050
6051
6052
6054
6056
6099
6106
6176
6177
6183
6187
6201
6202
6203
6204
6205
6266
6316
6319
6320
6322
6323
6324
6325
6326
6337
6338
6339
6398
6399
6400
6401
6402
6403
6586
6895
6896
6898
6914
6915
6916
6917
6919
6920
6922
6923
6924
6925
6926
6927
6928
6929
6930
6931
6932
6933
6934
6935
6936
6937
6938
6939
6940
6941
6942
6943
6944
6945
6946
6954
6955
6957
6958
6959
6960
6961
6962
6963
7024
7025
7027
7028
7030
7031
7033
7034
7036
7037
7043
7044
7046
7047
7049
7050
7115
7116
7117
7118
7122
7123
7127
7128
7132
7133
7137
7138
7149
7150
7154
7155
7184
7185
7186
7187
7188
7189
7192
7195
7196
7197
7198
7300
7301
7302
7855
7856
7857
7858
8289
8290
8292
8293
8294
8295
8296
8297
8298
8299
8300
8301
8302
8303
8304
8305
8306
8307
8308
8309
8310
8311
8312
8313
8314
8315
8316
8317
8318
8319
8320
8321
8322
8323
8324
8325
8326
8327
8328
8329
8330
8331
8332
8333
8334
8335
8336
8337
8338
8339
8340
8341
8342
8343
8344
8345
8346
8347
8348
8349
8350
8351
8352
8353
8354
8355
8356
8357
8358
8359
8360
8361
8362
8363
8364
8365
8366
8367
8368
8369
8370
8371
8372
8373
8374
8375
8376
8377
8378
8379
8380
8381
8382
8383
8384
8385
8386
8388
8390
8392
8441
8442
8447
8448
8449
8450
8454
8455
8456
8457
8461
8465
8497
8498
8499
8500
8501
8502
8503
8504
8506
8511
8512
8513
8514
8517
8518
8519
8520
8601
8604
8617
8620
8668
8669
8670
8671
8672
8673
8674
8675
8676
8677
8678
8679
8680
8681
8682
8683
8684
8685
8686
8687
8688
8689
8690
8691
8692
8693
8694
8695
8696
8697
8698
8699
8700
8701
8702
8703
8704
8705
8706
8707
8708
8709
8710
8711
8712
8713
8714
8715
8716
8717
8718
8719
8720
8721
8722
8723
8724
8725
8726
8727
8728
8729
8730
8731
8732
8733
8734
8735
8736
8737
8738
8739
8740
8741
8742
8743
8744
8745
8746
8747
8748
8749
8750
8751
8753
8754
8756
8757
8758
8759
8760
8762
8763
8764
8765
8766
8768
8769
8771
8772
8773
8774
8775
8776
8778
8779
8780
8781
8782
8783
8784
8789
8790
8791
8792
8793
8794
8799
8800
8801
8802
8803
8804
8805
8806
8807
8808
8809
8810
8811
8812
8813
8814
8815
8817
8818
8819
8820
8821
8822
8823
8824
8825
8826
8827
8828
8829
8830
8831
8832
8833
8834
8835
8836
8837
8838
8839
8841
8842
8843
8844
8845
8846
8847
8848
8849
8850
8851
8852
8853
8854
8855
8856
8857
8858
8859
8860
8861
8862
8863
8896
8897
8898
8900
8901
8902
8903
8904
8906
8907
8908
8909
8910
8911
8912
8913
8914
8915
8916
8918
8919
8920
8921
8922
8923
8924
8925
8927
8928
8929
8930
8931
8934
8935
8936
8937
8938
8939
8940
8941
8942
8943
8944
8945
8946
8947
8948
8950
8951
8952
8953
8954
8955
8956
8957
8958
8962
8963
8964
8965
8966
8967
8968
8969
8970
8971
8972
8973
8974
8975
8977
8978
8980
8981
8982
8983
8984
8985
8986
8987
8988
8989
8990
8991
8992
8994
8995
8996
8997
8999
9000
9002
9003
9007
9008
9010
9011
9013
9014
9016
9017
9019
9020
9035
9036
9044
9046
9047
9048
9049
9050
9051
9052
9053
9054
9055
9056
9057
9058
9059
9060
9061
9062
9063
9064
9065
9066
9070
9071
9072
9073
9074
9075
9076
9077
9078
9079
9080
9081
9082
9083
9084
9085
9086
9087
9088
9089
9090
9095
9096
9097
9098
9099
9100
9101
9102
9103
9104
9105
9106
9107
9108
9109
9110
9111
9112
9117
9118
9119
9120
9121
9122
9123
9124
9125
9126
9127
9128
9129
9130
9131
9132
9133
9134
9135
9136
9137
9138
9139
9140
9141
9142
9143
9144
9161
9162
9163
9164
9165
9166
9167
9168
9169
9170
9171
9172
9175
9176
9177
9178
9179
9180
9243
9244
9245
9246
9247
10189
10802
10803
11346
11349
)


2391
(
1
2
6
17
18
19
20
21
22
23
1694
1695
1696
1697
1703
1705
1711
1712
1838
1839
1841
1961
1968
1969
2014
2019
2043
2051
2052
2053
2055
2056
2058
2061
2063
2068
2078
2083
2084
2085
2087
2088
2217
2267
2268
2270
2271
3081
3236
3237
3238
3239
3248
3251
3252
3254
3279
3280
3281
3282
3283
3284
3285
3286
3287
3288
3294
3391
3392
3393
3395
3396
3397
3398
3399
3400
3401
3402
3403
3404
3405
3406
3407
3408
3409
3410
3411
3412
3413
3414
3415
3416
3417
3418
3419
3420
3421
3422
3423
3424
3425
3426
3427
3428
3429
3430
3431
3432
3433
3434
3435
3436
3437
3438
3439
3440
3441
3442
3443
3444
3445
3446
3447
3448
3449
3450
3451
3452
3453
3454
3455
3456
3457
3458
3459
3460
3461
3462
3463
3464
3465
3466
3467
3468
3469
3470
3471
3472
3473
3474
3475
3476
3477
3478
3479
3480
3481
3482
3483
3484
3485
3486
3487
3488
3489
3490
3491
3492
3493
3494
3495
3496
3497
3498
3499
3500
3501
3502
3503
3504
3505
3506
3507
3508
3509
3510
3511
3512
3513
3514
3515
3516
3517
3518
3519
3520
3521
3522
3523
3524
3525
3536
3537
3538
3539
3540
3541
3542
3543
3548
3549
3550
3551
3554
3555
3556
3557
3558
3559
3560
3561
3562
3563
3564
3565
3566
3567
3572
3573
3574
3575
3578
3579
3580
3581
3599
3600
3601
3602
3603
3604
3605
3606
3607
3608
3609
3610
3611
3612
3613
3614
3615
3616
3617
3618
3619
3620
3621
3622
3623
3624
3625
3626
3627
3628
3629
3630
3631
3632
3633
3634
3635
3636
3637
3638
3639
3640
3641
3642
3643
3644
3645
3646
3647
3648
3649
3650
3651
3652
3653
3654
3655
3656
3657
3658
3659
3660
3661
3662
3663
3664
3665
3666
3667
3668
3669
3670
3671
3672
3673
3674
3675
3676
3677
3678
3679
3680
3681
3682
3684
3685
3686
3687
3688
3689
3690
3691
3692
3693
3694
3695
3696
3697
3699
3700
3701
3702
3703
3704
3705
3706
3707
3708
3709
3710
3711
3712
3713
3714
3715
3716
3717
3718
3719
3720
3721
3722
3723
3724
3725
3726
3727
3728
3730
3731
3732
3733
3734
3735
3736
3737
3738
3739
3740
3741
3742
3743
3744
3745
3746
3747
3748
3749
3750
3751
3752
3753
3754
3755
3756
3757
3758
3759
3760
3761
3762
3763
3764
3765
3766
3767
3769
3770
3771
3772
3773
3774
3775
3776
3777
3778
3779
3780
3781
3782
3783
3784
3785
3786
3787
3788
3789
3790
3791
3793
3794
3795
3796
3797