/*--------------------------------*- C++ -*----------------------------------*\
  =========                 |
  \\      /  F ield         | OpenFOAM: The Open Source CFD Toolbox
   \\    /   O peration     | Website:  https://openfoam.org
    \\  /    A nd           | Version:  8
     \\/     M anipulation  |
\*---------------------------------------------------------------------------*/
/*   Windows 32 and 64 bit porting by blueCAPE: http://www.bluecape.com.pt   *\
|  Based on Windows porting (2.0.x v4) by Symscape: http://www.symscape.com   |
\*---------------------------------------------------------------------------*/
FoamFile
{
    version     2.0;
    format      ascii;
    class       scalarListList;
    location    "constant/vegetation";
    object      kcLAIboundary;
}
// * * * * * * * * * * * * * * * * * * * * * * * * * * * * * * * * * * * * * //


5
(

578
(
0
0
0
0
0
0
0
0
0
1.6776946
0.00058459648
0
0
0
0
0.85950303
0
0
0
0
0
0.0031269937
0
0.28424497
0
0
0
0
0
0
0
0
0
0
0
0
0
0
0
0
0.75712367
0.10356008
1.2572363
1.2244634
0
2.3970101
0.92807315
0
0.11817207
0.17308779
0
0.36745806
0.35764453
0
0
8.2750875e-06
0
0
0
0
0.00083516602
0.00018761754
0.00015279579
0.00025271683
0.0017375305
0.00012900431
0
0
0
0
0
0
0
0
0
0
0
0
0
0
0
0
0
0
0
0
0
0
0
0
0
0
0
0
0
0
0
0
0
0
0
0
0
0
0
0
0
0
0
0
0
0
0
0
0
0
0
0
0
0
0
0
0
0
0
0
0
0
0
0
0
0
0
0
0
0
0
0
0
0
0
0
0
0
0
0
0
0
0
0
0
0
0
0
0
0
0
0
0
0
0
0
0
8.5715959e-05
4.7459909e-05
0
0
0
0
0
0
0
0
0
0
0
0
0
0
0
0
0
0
0
0
0
0
0
0
0
0
0
0
0
0
0
0
0
0
0
0
0
0
0
0
0
0
0
0
0
0
0
0
0
0
0
0
0
0
0
0
0
0
0
0
0
0
0
0
0
0
0
0
0
0
0
0
0
0
0
0
0
0
0
0
0
0
0
0
0
0
0
0
0
0
0
0
0
0
0
0
0
0
0
0
0
0
0
0
0
0
0
0
0
0
0
0
0
0
0
0
0
0
0
0
0
0
0
0
0
0
0
0
0
0
0
0
0
0
0
0
0
0
0
0
0
0
0
0
0
0
0
0
0
0
0
0
0
0
0
0
0
0
0
0
0
0
0
0
0
0
0
0
0
0
0
0
0
0
0
0
0
0
0
0
0
0
0
0
0
0
0
0
0
0
0
0
0
0
0
0
0
0
0
0
0
0
0
0
0
0
0
0
0
0
0
0
0
0
0
0
0
0
0
0
0
0
0
0
0
0
0
0
0
0
0
0
0
0
0
0
0
0
0
0
0
0
0
0
0
0
0
0
0
0
0
0
0
0
0
0
0
0
0
0
0
0
0
0
0
0
0
0
0
0
0
0
0
0
0
0
0
0
0
0
0
0
0
0
0
0
0
0
0
0
0
0
0
0
0
0
0
0
0
0
0
0
0
0
0
0
0
0
0
0
0
0
0
0
0
0
0
0
0
0
0
0
0
0
0
0
0
0
0
0
0
0
0
0
0
0
0
0
0
0
0
0
0
0
0
0
0
0
0
0
0
0
0
0
0
0
0
0
0
0
0
0
0
0
0
0
0
0
0
0
0
0
0
0
0
0
0
0
0
0
0
0
0
0
0
0
0
0
0
0
0
0
0
0
0
0
0
0
0
0
0
0
0
0
0
0.15203829
0.30872913
0.35051582
1.1482368
0.19242559
0.21779246
0.22688749
0.23917107
)


578
(
0
0
0
0
0
0
0
0
0
1.9960092
0.22750137
0
0
0
0
1.054548
0
0
0
0
0
0.050679561
0
1.1035441
0
0
0
0
0
0
9.1936928e-05
0
0
0
0
0
0.045603947
0
0
0
1.3827458
0.13623026
1.3703179
1.0975975
0
2.3554385
1.1057535
0
0.12875606
0.097389668
0
0.37073909
0.26478749
0
0
0.00014925793
0
0
0
0
0.0068086267
0.051659611
0.00487914
0.047202981
0.026363648
0.0050798883
0
0
0
0
0
0
0.00056400737
0
0
0.0016884003
0
0
0
0
0
0
0
0
0
0
0
0
0
0
0
0
0
0
0
0
0
0
0
0
0
0
0
0
0.0028588423
0.0017157292
0.0034470815
0.0015363836
0.0033803251
0
0
0
0
0
0
0
0
0
0
0
0
0
0
0
0
0
0
0
0
0
0
0
0
0
0
0
0
0
0
0
0
0
0
0
0
0.027341145
0.024940939
0.00079021075
9.4757347e-05
9.8786428e-05
0.00060122109
0.01621749
0.00015202852
0
0
0
0
0
2.0383132e-05
0
0.00011068653
0
0
0.0049681282
0.0046268021
0.0091536331
0.00064263802
0.0001506488
0.00012981177
0.00021190171
0.0018316039
0.0019811387
0.0012451923
0.00024937188
0.00016129728
0.0001617575
0.00023573095
0
0
0
0
0
0
0
0
0
0
0
0
0
0
0
0
0
0
0
0
0
0
0
0
0
0
0
0
0
0
0
0
0
0
0
0
0
0
0
0
0
0
0
0
0
0
0
0
0
0
0
0
0
0
0
0
0
0
0
0
0
0.0012364511
1.6522684e-05
0.00070479708
0
0
0
0
0
1.0379122e-05
3.5615312e-05
3.1967896e-05
0
0
0
0
0
0
0
0
0
0
0
0
0
0
0
0
0
0
0
0
0
0
0
0
0
0
0
0
0
0
0
0
0
0
0
6.5196216e-06
0
0
1.4019261e-05
0
0
0
0
0
0
0
0
0
0
0
0
0
0
0
0
0
0
0
0
0
0
0
0
0
0
0.0032013911
0.002619159
0
0.0014821052
0
0.0028397001
0.0022693217
0.0021028182
0.002058836
0
0
3.2126349e-05
0
8.2649546e-05
6.2482488e-05
6.1437596e-05
4.4580938e-05
8.2018067e-05
4.3368466e-05
9.2627308e-05
9.2416426e-05
0
0
0
0
0
0
0
0
0
0
0
0
0
0
0
0
0
0
0
0
0
0
0
0
0
0
0
0
0
0
0
0
0
0
0
0
0
0
0
0
0
0
0
0
0
0
0
0
0
0
0
0
0
0
0
0
0
0
0
0.00056248407
0.00028490728
0
0
0
0
0
0
0
0
0
0
0
0
0
0
0
0
0
0
0
0
0
0
0
0
0
0
0
0
0
0
0
0
0
0
0
0
0
0
0
0
0
0
0
0
0
0
0
0
0
0
0
0
0
0
0
0
0
0
0
0
0
0
0
0
0
0
0
0
0
0
0
0
0
0
0
0
0
0
0
0
0
0
0
0
0
0
0
0
0
0
0
0
0
0
0
0
0
0
0
0
0
0
0
0
0
0
0
0
0
0
0
0
0
0
0
0
0
0
0
0
0
0
0
0
0
0
0
0
0
4.9325124e-07
0
0
0
0
1.1393824e-05
0
0
0
0
0
0
0
0
0
0
0
0
0
0
0
0
0
0
0
0
0
0
0
0
0
0
0
0.00070974337
0
0
0.00083901054
0
0
0
0
0
0
0
0
0.13858203
0.35681851
0.62386586
1.3215602
0.20770582
0.20743497
0.30335713
0.25926123
)


578
(
0
0
0
0
0
0
0
0
0
2.2825399
1.2968513
0
0
0
0
1.3450095
0
0
0
0
0
0.47733427
0
1.9467251
0
0
0
0
0
0
0.10334548
0
0
0
0
0
0.12867084
0
0
0
1.8593139
0.18238484
1.2656895
0.86381253
0
1.8947641
1.2740643
0
0.12454133
0.075228691
0
0.40703245
0.30985671
0.036965317
0
0.17818861
0
0
0
0
0.91390151
0.86315758
0.71575952
1.1345421
0.92581545
0.68612932
0.044206764
0.020500195
0
0
0
0
0.22582897
0
0
0.3578764
0
0
0.01429259
0.069963877
0.047193487
0
0
0
0
0
0
0
0
0
0
0
0
0.1042281
0.12029467
0.078529175
0
0
0
0
0
0
0
0
0.51712773
0.3070219
0.53579149
0.27357296
0.48533014
0
0
0
0
0
0
0
0.010121681
0.04209775
0.11679111
0.077370176
0
0
0
0
0
0
0
0
0
0
0
0
0
0
0
0
0
0
0
0
0
0
0
0
0
0.25322662
0.25293844
0.0260553
8.8826717e-06
0.017102919
0.0020288874
0.22648986
0.17271972
0
0
0
0
0
0
0
0
0
0
0.61163745
0.50223933
0.36035262
0.046220515
0.039766828
0.030355575
0.062544417
0.031903305
0.0073801886
0.0044685177
0.15853895
0.045336558
0.091791977
0.075026729
0
0
0
0
0
0
0
0
0
0
0
0
0
0
0
0
0
0
0
0
0
0
0
0
0
0
0
0
0
0
0
0
0
0
0
0
0
0
0
0
0
0
0
0
0
0
0
0
0
0
0.1084475
0
0
0
0
0
0
0
0
0
0
0.21146497
0.059210744
0.13994526
0
0
0
0
0
0.0086250498
0.027091447
0.013725601
0
0
0
0
0
0
0
0
0
0
0
0
0
0
0
0
0
0
0
0
0
0
0
0
0
0
0
0
0
0
0
0
0
0
0
0.0040195424
0.093389415
0
0.002373587
0.0041885744
0
0
0
0
0
0
0
0
0
0
0
0
0
0
0
0
0
0
0
0
0
0
0
0
0
0.41635841
0.11692011
0.092942926
0.14754341
0.11991451
0.31973446
0.19371816
0.058112217
0.08309601
0
0
0.0038475284
0
0.02161951
0.014654338
0.1042436
0.012403212
0.067664118
0.014984789
0.024743017
0.024025029
0
0
0
0
0
0
0
0
0
0
0
0
0
0
0
0
0
0
0
0
0
0
0
0
0
0
0
0
0
0
0
0
0
0
0
0
0
0
0
0
0
0
0
0
0
0
0
0
0
0
0
0
0
0
0
0
0
0
0
0
0
0
0
0
0
0
0
0
0
0
0
0
0
0
0
0
0
0
0
0
0
0
0
0
0
0
0
0
0
0
0
0
0
0
0
0
0
0
0
0
0
0
0
0
0
0
0
0
0
0
0
0
0
0
0
0.028481318
0.064743028
0
0
0
0
0
0
0
0
0
0
0
0
0
0
0
0
0
0
0
0
0
0
0
0
0
0
0
0
0
0
0
0
0
0
0
0
0
0
0
0
0
0
0
0
0
0
0
0
0
0
0
0
0
0
0
0
0
0
0
0
0
0
0
0
0
0
0
0
0
0
0
0
0.040891784
0
0
0.04866704
0.070802199
0.021460334
0.0068161447
9.1981818e-05
0.0025478943
0.0074231175
0
0.0011442026
0
0
0
0
0
0
0
0
0
0
0
0
0
0
0
0
0
0
0
0
0
0
0
0
0
0
0
0
0
0
0
0
0
0
0.20789352
0.4990053
1.0518889
1.4952177
0.22727461
0.2105712
0.42331494
0.26909384
)


578
(
0
0
0
0
0
0
0
0.52393424
0
2.2333903
2.3372146
0
0
0
0.00027787332
1.6300936
0
0
0
0
0.095023501
1.403179
0
2.4732537
0
0
0
0.021683972
0
0.50200422
1.0538192
0
0.0026512526
0
0
0.31813401
0.18137191
0.028722875
0
0
2.3557906
0.16643328
1.4517957
1.3774809
0
2.825943
1.3814581
0
0.081029551
0.22383448
0
0.64003977
0.59858079
0.9244287
0
1.1314013
0
0
0
0
2.146914
2.0684438
1.9253451
2.2905691
2.1596445
1.8916728
1.1049065
0.93916835
0
0
0.070022763
0.018403856
1.4800341
0.48489713
0.0015061075
1.5805174
0.37573318
0.0054374748
0.80829134
1.2771971
0.99974773
0.63590457
0.77863761
0.50228092
0
0
0
0.16829521
0.014127504
0.01903538
0.013913134
0.0092015383
0.0046518575
1.3834958
1.418348
1.1788303
0.62310449
0.26493919
0.37957749
0
0
0
0
0
1.7070377
1.5520751
1.7053531
1.5336861
1.6682903
0.27019988
0.14962874
0.042104136
0.0095888254
0
0.00011992273
0
0.7729735
0.95637188
1.3759537
1.1548361
0.59912829
0.47274966
0.23428528
0.35135614
0
0
0
0.012867177
0.017878941
0.12031013
0.023079693
0.0079976748
0.0033341512
0
0
0
0
0
0
0
0
0
0
0
0
1.2605603
1.4522825
0.19542524
0.0055430434
0.12594676
0.013465885
1.0736879
0.88524315
0
0
0
0
0.0038697657
0.0041898379
0.002624097
0.0062215095
0
0
1.8351806
1.7685699
1.6471908
0.36125645
0.32241304
0.23222973
0.51098878
0.2537655
0.039254696
0.026412607
0.97003353
0.47504287
0.68577162
0.71859485
0
0
0
0
0.0013029287
0
0.00084514231
0
0
0
0
0
0
0
0
0
0
0
0
0
0
0
0
0
0
0
0
0
0
0
0
0
0
0
0
0
0
0
0
0.24597577
0.033299236
0
0
0
0.080926336
0
0
0
0
0.6480846
1.2751419
0.51383222
0.14004674
0
0
0
0
0
0
0
0
1.5034316
0.77093449
1.3557022
0.008987584
0.029765861
0
0
0.0025325898
0.12782312
0.61090243
0.17691888
0.0042809337
0
0
0
0
0
0
0
0
0
0
0
0
0.0015088769
0
0
0.0014363549
0.001545286
0.066903045
0.029863951
0
1.7176749e-06
0
0
0
0
0
0
0
0
0
0
0.00048943877
0
0.53140911
0.59115757
1.1240437
0.025633182
0.42927662
0.11912899
0
0
0
0
0
0
0
0
0
0
0
0
0
0
0
0
0
0
0
0
0
0
0
0
0
1.6273063
0.98091662
0.96216766
1.1817953
1.1618115
1.5719396
1.3865073
0.47767801
0.69820345
0.0035934003
0.003344085
0.054043749
0.062621602
0.19423089
0.13218764
0.7964877
0.43957936
0.62725288
0.25719291
0.2557377
0.44699841
0
0
0
0
0
0
0
0
0
0
0
0
0
0
0
0
0
0
0
0
0
0
0
0
0
0
0
0
0
0
0
0
0
0
0
0
0
0
0
0
0
0
0
0
0
0
0
0
0.0015876186
0
0
0.001868887
0.0026108158
0.00027055945
0.0014148709
0
0
3.2794341e-06
0.0045844859
0.0082894981
0.0075139112
0.0051136073
0
0
0
0
0
0
0
0
0
0
0
0
0
0
0
0
0
0
0
0
0
0
0
0
0
0
0
0
0
0
0
0
0
0
0
0
0
0.00037836865
0
0
0
0.25846543
0.013205609
0.02573501
0.001381908
0.0035405841
0.014296887
0
0
0
0
0
0
0.84251304
1.0384412
0.38160982
0.26400159
0
0
0
0
0
0
0
0
0
0.014287188
0.0193181
0
0
0
0
0
0
0
0
0
0
0
0
0
0
0
0
0
0.0023974661
0.00057709484
0.0014986434
0.0030379757
0.010105963
0.0021576092
0.0011526582
0.00050595459
0.00042765182
0
0
0
0.0001429886
0
0
0
0
0
0
0
0
0
0
0
0
0
0
0
0
0
0
0
0
0
0
0
0
0
0
0
0
0
0.74152253
0.40414157
0.56076434
0.89633911
0.93744163
0.69809495
0.25581981
0.24621107
0.12698814
0.15528881
0.063642907
0.10449485
0
0
0
0
0
0
0
0
0
0
0
0
0
0
0
0
0
0
0
0
0.0022059739
0.0023222977
0.0091198696
0.005702631
0.0056926127
0.0091742541
0
0
0
0
0
0
0
0
0.26856571
0.64456764
1.609184
1.788352
0.26565961
0.22765124
0.53006252
0.33180715
)


578
(
0
0
0
0
0
0
0.050497639
2.6189898
0
1000
1000
1.6171426
0
0
1.7842569
1000
0
0
0.050366576
0.77332944
2.0167944
1000
0.022107635
1000
0.012871701
0.022150382
0.010601191
1.0632676
0.022125344
2.5320964
1000
0
1.7706737
0.6783782
0
2.3613991
1.1110557
0.23509568
1.2221701
0.0070121747
1000
0.94910106
1000
1000
0
1000
1000
0
0.82521835
1.3559164
0.014948515
2.2457929
2.094566
3.2098233
0.77983397
1000
0
0
0
0
3.9677307
1000
3.8203194
4.5502089
3.9005199
3.5684118
1000
1000
1000
1000
1000
1000
1000
1000
1000
1000
1000
1000
1000
1000
1000
1000
1000
1000
1000
1000
1000
1000
1000
1000
1000
1000
1000
1000
1000
1000
1000
1000
1000
1000
1000
1000
1000
1000
1000
1000
1000
1000
1000
1000
1000
1000
1000
1000
1000
1000
1000
1000
1000
1000
1000
1000
1000
1000
1000
1000
1000
1000
1000
1000
1000
1000
1000
1000
1000
0
0
0
0
0
0
0
0
0
0
2.308742
2.5185533
0.88524865
0.32976355
0.65426788
0.45050761
2.162049
2.0160489
0
0
0
0
0.07912817
0.087729185
0.054172589
0.12791052
0
0
3.2698847
2.9531173
2.7370458
1.3266194
1.2823916
0.98541217
1.6192128
1.0226053
0.51541571
0.52404525
2.1084349
1.5667865
1.8488525
1.8649893
0
0
0
0
0.031215724
0
0.021516774
0
0
0
0
0
0
0
0
0
0
0
0
0
0
0
0
0
0
0
0
0
0
0
0
1000
1000
1000
1000
1000
1000
1000
1000
1000
1000
1000
1000
1000
1000
1000
1000
1000
1000
1000
1000
1000
1000
1000
1000
1000
1000
1000
1000
1000
1000
1000
1000
1000
1000
1000
1000
1000
1000
1000
1000
1000
1000
1000
1000
1000
1000
1000
1000
1000
1000
1000
1000
1000
1000
1000
1000
1000
1000
1000
1000
1000
1000
1000
1000
1000
1000
1000
1000
1000
1000
1000
1000
1000
1000
1000
1000
1000
1000
1000
1000
1000
1000
1000
1000
0
1000
1000
1000
1000
1000
1000
1000
1000
1000
1000
0
0
1000
1000
0
1000
1000
1000
1000
1000
1000
1000
1000
1000
1000
1000
1000
1000
1.5211279
1.8041792
1000
1000
1000
1000
1000
1000
1000
1000
1000
1000
1000
1000
1000
1000
1000
0
1000
1000
1000
1000
1000
1000
1000
1000
1000
1000
1000
1000
1000
0
1000
1000
1000
0
1000
1000
1000
1000
1000
1000
1000
1000
1000
1000
1000
0
0
0
0
0
0
1000
1000
1000
0
1000
1000
1000
1000
1000
0.037822381
0
0
0.036619137
1000
1000
1000
1000
1000
1000
0.095900229
0.15076593
0.15384328
0.093771565
0
0
0
0
0
0
1000
0
1000
1000
1000
1000
1000
1000
1000
1000
1000
1000
1000
1000
1000
1000
1000
1000
1000
1000
1000
1000
1000
1000
1000
1000
1000
1000
1000
1000
1000
1000
1000
1000
1000
1000
1000
1000
1000
1000
1000
1000
1000
1000
1000
1000
0
1000
1000
1000
1000
1000
1000
1000
1000
1000
1000
1000
1000
1000
1000
1000
1000
1000
1000
1000
0
0
0
0
0
0
0
0
0
0
0
0
0
1000
1000
1000
1000
1000
1000
1000
1000
1000
1000
1000
1000
1000
1000
1000
1000
1000
1000
1000
1000
1000
1000
1000
1000
1000
1000
1000
1000
1000
1000
1000
1000
1000
1000
1000
1000
1000
1000
1000
1000
1000
1000
1000
1000
1000
1000
1000
1000
1000
1000
1000
1000
1000
1000
1000
1000
1000
1000
1000
1000
1000
1000
1000
1000
1000
1000
1000
1000
1000
1000
1000
1000
0
0
0.035865102
0.03741358
0.14789512
0.092080297
0.091684096
0.14280082
1000
1000
1000
1000
1000
1000
0
0
0.30635251
0.98904818
1.9731989
1000
0.24132764
0.2658591
0.61251767
0.93842504
)

)


// ************************************************************************* //
