/*--------------------------------*- C++ -*----------------------------------*\
  =========                 |
  \\      /  F ield         | OpenFOAM: The Open Source CFD Toolbox
   \\    /   O peration     | Website:  https://openfoam.org
    \\  /    A nd           | Version:  8
     \\/     M anipulation  |
\*---------------------------------------------------------------------------*/
/*   Windows 32 and 64 bit porting by blueCAPE: http://www.bluecape.com.pt   *\
|  Based on Windows porting (2.0.x v4) by Symscape: http://www.symscape.com   |
\*---------------------------------------------------------------------------*/
FoamFile
{
    version     2.0;
    format      ascii;
    class       scalarListList;
    location    "constant/vegetation";
    object      solarLoadFineFaces;
}
// * * * * * * * * * * * * * * * * * * * * * * * * * * * * * * * * * * * * * //


5
(

1098
(
717.08284
717.08284
717.08284
717.08284
717.08284
717.08284
717.08284
133.95404
717.08284
717.08284
717.08284
717.08284
717.08284
717.08284
717.08284
717.08284
717.08284
717.08284
133.95404
717.08284
717.08284
717.08284
717.08284
717.08284
717.08284
717.08284
717.08284
717.08284
717.08284
717.08284
717.08284
717.08284
717.08284
717.08284
717.08284
717.08284
717.08284
717.08284
717.08284
717.08284
303.59311
717.08284
717.08284
717.08284
717.08284
717.08284
717.08284
717.08284
717.08284
717.08284
717.08284
717.08284
717.08284
717.08284
717.08284
717.08284
717.08284
717.08284
717.08284
717.08284
717.08284
717.08284
336.32155
336.32155
133.95404
717.08284
717.08284
717.08284
203.96636
717.08284
717.08284
210.76167
717.08284
717.08284
717.08284
717.08284
717.08284
717.08284
717.08284
717.08284
717.08284
133.95404
65.247079
283.47338
717.08284
717.08284
717.08284
203.96636
717.08284
717.08284
65.247079
65.247079
203.96636
65.247079
65.247079
717.08284
717.08284
210.76167
65.247079
65.247079
210.76167
65.247079
717.08284
717.08284
717.08284
717.08284
717.08284
717.08284
717.08284
717.08284
717.08284
717.08284
203.96636
717.08284
717.08284
717.08284
717.08284
717.08284
717.08284
717.08284
717.08284
717.08284
717.08284
717.08284
717.08284
717.08284
717.08284
717.08284
717.08284
717.08284
717.08284
717.08284
717.08284
717.08284
717.08284
717.08284
717.08284
717.08284
717.08284
717.08284
717.08284
717.08284
717.08284
717.08284
717.08284
717.08284
717.08284
717.08284
717.08284
717.08284
717.08284
717.08284
717.08284
717.08284
717.08284
717.08284
717.08284
717.08284
717.08284
717.08284
717.08284
717.08284
717.08284
717.08284
717.08284
717.08284
717.08284
717.08284
717.08284
717.08284
717.08284
717.08284
717.08284
717.08284
717.08284
717.08284
717.08284
717.08284
717.08284
717.08284
717.08284
717.08284
717.08284
717.08284
717.08284
283.47338
717.08284
717.08284
717.08284
336.32155
717.08284
717.08284
717.08284
717.08284
717.08284
717.08284
717.08284
717.08284
717.08284
717.08284
717.08284
717.08284
717.08284
717.08284
717.08284
717.08284
717.08284
717.08284
717.08284
717.08284
717.08284
717.08284
717.08284
717.08284
717.08284
717.08284
717.08284
717.08284
717.08284
717.08284
717.08284
717.08284
717.08284
717.08284
717.08284
717.08284
717.08284
717.08284
717.08284
717.08284
717.08284
717.08284
717.08284
717.08284
717.08284
717.08284
717.08284
717.08284
717.08284
717.08284
717.08284
717.08284
717.08284
717.08284
717.08284
80.639504
80.639504
80.639504
80.639504
80.639504
80.639504
222.06862
222.06862
222.06862
222.06862
222.06862
222.06862
222.06862
222.06862
222.06862
222.06862
222.06862
222.06862
222.06862
222.06862
222.06862
222.06862
222.06862
222.06862
222.06862
222.06862
222.06862
222.06862
222.06862
222.06862
222.06862
222.06862
222.06862
222.06862
222.06862
222.06862
222.06862
222.06862
222.06862
222.06862
222.06862
222.06862
222.06862
222.06862
222.06862
222.06862
222.06862
222.06862
222.06862
222.06862
222.06862
222.06862
222.06862
222.06862
222.06862
222.06862
222.06862
222.06862
222.06862
222.06862
222.06862
222.06862
222.06862
222.06862
222.06862
222.06862
222.06862
222.06862
222.06862
222.06862
222.06862
222.06862
222.06862
222.06862
222.06862
717.08284
717.08284
717.08284
717.08284
717.08284
717.08284
717.08284
717.08284
717.08284
717.08284
80.639504
80.639504
80.639504
80.639504
80.639504
80.639504
80.639504
80.639504
717.08284
717.08284
717.08284
717.08284
80.639504
80.639504
80.639504
80.639504
717.08284
717.08284
80.639504
80.639504
80.639504
80.639504
80.639504
80.639504
80.639504
80.639504
80.639504
80.639504
80.639504
80.639504
80.639504
80.639504
717.08284
717.08284
717.08284
717.08284
80.639504
80.639504
80.639504
80.639504
717.08284
717.08284
80.639504
80.639504
80.639504
80.639504
717.08284
717.08284
717.08284
717.08284
717.08284
717.08284
717.08284
717.08284
717.08284
717.08284
717.08284
717.08284
717.08284
717.08284
717.08284
717.08284
717.08284
222.06862
222.06862
222.06862
222.06862
222.06862
222.06862
222.06862
222.06862
222.06862
222.06862
222.06862
222.06862
222.06862
222.06862
222.06862
222.06862
222.06862
222.06862
222.06862
222.06862
222.06862
222.06862
222.06862
222.06862
222.06862
222.06862
222.06862
222.06862
222.06862
222.06862
222.06862
222.06862
222.06862
222.06862
222.06862
222.06862
222.06862
222.06862
222.06862
222.06862
222.06862
222.06862
222.06862
222.06862
222.06862
222.06862
222.06862
222.06862
222.06862
222.06862
222.06862
222.06862
222.06862
222.06862
222.06862
222.06862
222.06862
222.06862
222.06862
222.06862
222.06862
222.06862
222.06862
222.06862
222.06862
222.06862
222.06862
222.06862
222.06862
222.06862
222.06862
222.06862
222.06862
222.06862
222.06862
222.06862
222.06862
222.06862
222.06862
222.06862
222.06862
222.06862
222.06862
222.06862
717.08284
222.06862
222.06862
222.06862
222.06862
222.06862
222.06862
222.06862
222.06862
222.06862
222.06862
222.06862
222.06862
222.06862
222.06862
717.08284
222.06862
222.06862
222.06862
222.06862
222.06862
222.06862
222.06862
222.06862
222.06862
222.06862
222.06862
222.06862
222.06862
80.639504
80.639504
222.06862
222.06862
222.06862
222.06862
222.06862
222.06862
222.06862
222.06862
222.06862
222.06862
222.06862
222.06862
222.06862
222.06862
222.06862
717.08284
222.06862
222.06862
222.06862
222.06862
222.06862
222.06862
222.06862
222.06862
222.06862
222.06862
222.06862
222.06862
222.06862
222.06862
222.06862
222.06862
222.06862
222.06862
222.06862
222.06862
222.06862
222.06862
222.06862
222.06862
222.06862
222.06862
222.06862
222.06862
222.06862
80.639504
80.639504
80.639504
80.639504
80.639504
80.639504
222.06862
222.06862
222.06862
717.08284
222.06862
222.06862
222.06862
222.06862
222.06862
80.639504
80.639504
80.639504
80.639504
222.06862
222.06862
222.06862
222.06862
222.06862
222.06862
80.639504
80.639504
80.639504
80.639504
80.639504
80.639504
80.639504
80.639504
717.08284
80.639504
222.06862
80.639504
222.06862
222.06862
222.06862
222.06862
222.06862
222.06862
222.06862
222.06862
222.06862
222.06862
222.06862
222.06862
222.06862
222.06862
222.06862
222.06862
222.06862
222.06862
222.06862
222.06862
222.06862
222.06862
222.06862
222.06862
222.06862
222.06862
222.06862
222.06862
222.06862
222.06862
222.06862
222.06862
222.06862
222.06862
222.06862
222.06862
222.06862
222.06862
222.06862
222.06862
222.06862
222.06862
222.06862
222.06862
222.06862
222.06862
222.06862
222.06862
222.06862
222.06862
222.06862
222.06862
222.06862
222.06862
222.06862
222.06862
222.06862
222.06862
222.06862
222.06862
222.06862
222.06862
222.06862
222.06862
222.06862
717.08284
717.08284
717.08284
80.639504
717.08284
80.639504
80.639504
717.08284
717.08284
717.08284
80.639504
80.639504
222.06862
222.06862
222.06862
222.06862
222.06862
222.06862
222.06862
222.06862
222.06862
222.06862
222.06862
222.06862
222.06862
222.06862
222.06862
222.06862
222.06862
222.06862
222.06862
222.06862
222.06862
222.06862
222.06862
222.06862
222.06862
222.06862
222.06862
222.06862
222.06862
222.06862
222.06862
222.06862
222.06862
222.06862
222.06862
222.06862
222.06862
222.06862
222.06862
222.06862
222.06862
222.06862
222.06862
222.06862
222.06862
222.06862
222.06862
222.06862
222.06862
222.06862
222.06862
222.06862
222.06862
222.06862
222.06862
222.06862
222.06862
222.06862
222.06862
222.06862
222.06862
222.06862
222.06862
222.06862
222.06862
222.06862
222.06862
222.06862
222.06862
222.06862
222.06862
222.06862
80.639504
80.639504
80.639504
80.639504
80.639504
80.639504
80.639504
80.639504
222.06862
222.06862
222.06862
222.06862
222.06862
222.06862
717.08284
717.08284
483.17253
191.17537
106.79299
31.430717
160.59144
31.101356
102.26128
0
417.9416
472.2483
0
127.28807
0
561.70061
713.06555
255.32539
454.48707
0
0
182.05841
178.71041
252.21059
401.50909
8.6961377
13.40389
128.22257
87.244127
233.5758
0
512.62039
430.9387
710.51313
453.27812
123.63446
22.138339
102.26765
307.29564
515.97436
345.61324
319.67992
0
0
235.05074
66.67876
262.34787
570.19772
303.19283
247.41721
362.57201
0
0
0
0
612.77713
599.12745
673.86226
701.6943
87.243881
14.373423
87.250751
233.5808
160.07665
306.41935
70.875627
4.7518052
127.27892
64.899958
100.14367
198.06203
233.58307
0
424.91852
238.6987
443.00175
416.49416
454.13706
435.33255
470.34984
653.4467
608.42315
419.81471
670.29708
710.43557
711.94271
654.68607
705.19235
485.39833
608.58919
488.1949
611.67183
0
140.6419
377.19324
277.41055
287.51174
436.40417
494.25514
0
127.30731
15.501432
25.07602
0
0
0
25.771311
14.185181
3.4924331
160.09387
122.87925
119.41277
228.08467
279.78512
310.12338
444.97629
447.83821
307.97779
482.69136
444.97411
309.72298
173.21499
160.07325
306.41192
306.41062
147.98385
0
0
450.59005
384.876
512.3648
0
557.00422
272.45188
296.66852
267.81919
420.20594
547.32153
745.9289
749.20028
344.01882
430.53321
261.12532
575.07347
473.13145
0
28.48142
198.57023
172.80806
252.21981
352.95839
389.73992
224.20321
76.691207
369.61453
555.12366
575.38273
0
705.71377
745.88325
753.70016
730.39137
0
0
0
120.48825
38.120248
141.85657
138.8871
143.23679
28.483524
28.503628
44.616866
36.204998
73.967562
81.037364
81.250508
319.77522
398.32562
288.79869
490.21902
293.10006
319.67144
375.79078
0
0
580.44612
538.55192
265.90094
313.50684
420.99926
76.770927
28.290159
33.982215
38.823011
315.89573
394.89487
394.52519
688.95357
642.79139
660.35985
586.11922
429.87263
522.56931
177.29921
181.18199
280.48759
0
0
652.06184
646.76068
648.81211
726.69162
715.53738
686.19739
674.42516
161.99671
132.46831
157.56355
45.511981
166.01681
296.09695
145.99608
303.91341
157.57666
91.376839
91.376163
49.818688
26.316935
26.31676
172.64303
172.65933
77.778683
170.91351
0
0
0
428.27336
286.73123
447.16706
264.07393
465.40353
676.52176
614.44782
652.83327
583.72487
645.23835
719.32852
703.3168
593.27489
643.11472
708.79553
661.28203
683.54308
662.46447
533.61094
609.72678
581.31062
534.38572
562.88461
385.28724
516.71198
377.8489
450.90628
151.81727
534.72335
176.44098
164.7766
150.69329
28.890836
447.37081
580.14078
454.47171
0
0
170.28211
398.75404
474.17356
457.77724
419.4871
421.01946
421.00731
676.79341
563.31122
645.05094
578.36899
575.82676
563.31631
522.62002
498.27974
415.44103
291.46709
289.61579
286.10147
273.37796
297.39779
0
0
0
0
0
0
39.894662
22.351974
12.393982
0
0
0
153.60569
0
1.6108337
7.694611
26.355086
15.517903
27.863889
1.832934
14.188745
147.44002
278.80114
278.80927
292.03522
278.80422
132.48556
160.27175
145.19664
319.92933
452.89746
439.06699
447.32397
431.53828
489.40963
303.89607
289.60411
303.89583
193.41616
169.86313
171.53209
662.03873
584.48652
587.98474
584.4809
539.54718
428.00934
0
0
)


1098
(
585.76158
585.76158
585.76158
585.76158
585.76158
585.76158
585.76158
79.591209
585.76158
585.76158
585.76158
585.76158
585.76158
585.76158
585.76158
204.04996
585.76158
585.76158
79.591209
585.76158
585.76158
585.76158
585.76158
585.76158
585.76158
585.76158
585.76158
585.76158
585.76158
585.76158
585.76158
585.76158
585.76158
585.76158
585.76158
585.76158
585.76158
585.76158
585.76158
585.76158
204.04996
194.29328
585.76158
585.76158
585.76158
585.76158
585.76158
585.76158
585.76158
585.76158
585.76158
585.76158
585.76158
585.76158
585.76158
585.76158
585.76158
194.29328
585.76158
585.76158
585.76158
585.76158
146.96097
146.96097
79.591209
585.76158
585.76158
585.76158
148.79878
585.76158
585.76158
195.4521
585.76158
585.76158
585.76158
585.76158
585.76158
585.76158
585.76158
585.76158
585.76158
79.591209
55.560602
193.86448
585.76158
585.76158
585.76158
148.79878
585.76158
585.76158
55.560602
55.560602
148.79878
55.560602
55.560602
585.76158
585.76158
585.76158
55.560602
55.560602
195.4521
55.560602
585.76158
585.76158
585.76158
585.76158
585.76158
585.76158
585.76158
585.76158
585.76158
585.76158
148.79878
585.76158
585.76158
585.76158
585.76158
585.76158
585.76158
585.76158
585.76158
585.76158
585.76158
585.76158
585.76158
585.76158
585.76158
585.76158
585.76158
585.76158
585.76158
585.76158
585.76158
585.76158
585.76158
585.76158
585.76158
585.76158
585.76158
585.76158
585.76158
585.76158
585.76158
585.76158
585.76158
585.76158
585.76158
585.76158
204.04996
585.76158
585.76158
585.76158
585.76158
585.76158
585.76158
585.76158
585.76158
585.76158
585.76158
585.76158
585.76158
585.76158
585.76158
585.76158
585.76158
585.76158
585.76158
585.76158
585.76158
585.76158
585.76158
585.76158
585.76158
585.76158
585.76158
585.76158
585.76158
585.76158
585.76158
585.76158
585.76158
585.76158
585.76158
585.76158
585.76158
193.86448
585.76158
585.76158
194.29328
146.96097
146.96097
585.76158
585.76158
585.76158
585.76158
585.76158
585.76158
585.76158
585.76158
585.76158
585.76158
585.76158
585.76158
585.76158
585.76158
585.76158
585.76158
585.76158
585.76158
585.76158
585.76158
585.76158
585.76158
585.76158
585.76158
585.76158
585.76158
585.76158
585.76158
585.76158
585.76158
585.76158
585.76158
585.76158
585.76158
585.76158
585.76158
585.76158
585.76158
585.76158
585.76158
585.76158
585.76158
585.76158
585.76158
585.76158
585.76158
585.76158
585.76158
585.76158
585.76158
585.76158
585.76158
585.76158
585.76158
227.80796
227.80796
227.80796
227.80796
227.80796
227.80796
169.66998
169.66998
169.66998
169.66998
169.66998
169.66998
169.66998
169.66998
169.66998
169.66998
169.66998
169.66998
169.66998
169.66998
169.66998
169.66998
169.66998
169.66998
169.66998
169.66998
169.66998
169.66998
169.66998
169.66998
169.66998
169.66998
169.66998
169.66998
169.66998
169.66998
169.66998
169.66998
169.66998
169.66998
169.66998
169.66998
169.66998
169.66998
169.66998
169.66998
169.66998
169.66998
169.66998
169.66998
169.66998
169.66998
169.66998
169.66998
169.66998
169.66998
169.66998
169.66998
169.66998
169.66998
169.66998
169.66998
169.66998
169.66998
169.66998
169.66998
169.66998
169.66998
169.66998
169.66998
169.66998
169.66998
169.66998
169.66998
169.66998
585.76158
585.76158
585.76158
585.76158
585.76158
585.76158
585.76158
585.76158
585.76158
585.76158
227.80796
227.80796
227.80796
227.80796
227.80796
227.80796
227.80796
227.80796
585.76158
585.76158
585.76158
585.76158
227.80796
227.80796
227.80796
227.80796
585.76158
585.76158
227.80796
227.80796
227.80796
227.80796
227.80796
227.80796
227.80796
227.80796
227.80796
227.80796
227.80796
227.80796
227.80796
227.80796
585.76158
585.76158
585.76158
585.76158
227.80796
227.80796
227.80796
227.80796
585.76158
585.76158
227.80796
227.80796
227.80796
227.80796
585.76158
585.76158
585.76158
585.76158
585.76158
585.76158
585.76158
585.76158
585.76158
585.76158
585.76158
585.76158
585.76158
585.76158
585.76158
585.76158
585.76158
169.66998
169.66998
169.66998
169.66998
169.66998
169.66998
169.66998
169.66998
169.66998
169.66998
169.66998
169.66998
169.66998
169.66998
169.66998
169.66998
169.66998
169.66998
169.66998
169.66998
169.66998
169.66998
169.66998
169.66998
169.66998
169.66998
169.66998
169.66998
169.66998
169.66998
169.66998
169.66998
169.66998
169.66998
169.66998
169.66998
169.66998
169.66998
169.66998
169.66998
169.66998
169.66998
169.66998
169.66998
169.66998
169.66998
169.66998
169.66998
169.66998
169.66998
169.66998
169.66998
169.66998
169.66998
169.66998
169.66998
169.66998
169.66998
169.66998
169.66998
169.66998
169.66998
169.66998
169.66998
169.66998
169.66998
169.66998
169.66998
169.66998
169.66998
169.66998
169.66998
169.66998
169.66998
169.66998
169.66998
169.66998
169.66998
169.66998
169.66998
169.66998
169.66998
169.66998
169.66998
585.76158
169.66998
169.66998
169.66998
169.66998
169.66998
169.66998
169.66998
169.66998
169.66998
169.66998
169.66998
169.66998
169.66998
169.66998
585.76158
169.66998
169.66998
169.66998
169.66998
169.66998
169.66998
169.66998
169.66998
169.66998
169.66998
169.66998
169.66998
169.66998
227.80796
227.80796
169.66998
169.66998
169.66998
169.66998
169.66998
169.66998
169.66998
169.66998
169.66998
169.66998
169.66998
169.66998
169.66998
169.66998
169.66998
585.76158
169.66998
169.66998
169.66998
169.66998
169.66998
169.66998
169.66998
169.66998
169.66998
169.66998
169.66998
169.66998
169.66998
169.66998
169.66998
169.66998
169.66998
169.66998
169.66998
169.66998
169.66998
169.66998
169.66998
169.66998
169.66998
169.66998
169.66998
169.66998
169.66998
227.80796
227.80796
227.80796
227.80796
227.80796
227.80796
169.66998
169.66998
169.66998
585.76158
169.66998
169.66998
169.66998
169.66998
169.66998
227.80796
227.80796
227.80796
227.80796
169.66998
169.66998
169.66998
169.66998
169.66998
169.66998
227.80796
227.80796
227.80796
227.80796
227.80796
227.80796
227.80796
227.80796
585.76158
227.80796
169.66998
227.80796
169.66998
169.66998
169.66998
169.66998
169.66998
169.66998
169.66998
169.66998
169.66998
169.66998
169.66998
169.66998
169.66998
169.66998
169.66998
169.66998
169.66998
169.66998
169.66998
169.66998
169.66998
169.66998
169.66998
169.66998
169.66998
169.66998
169.66998
169.66998
169.66998
169.66998
169.66998
169.66998
169.66998
169.66998
169.66998
169.66998
169.66998
169.66998
169.66998
169.66998
169.66998
169.66998
169.66998
169.66998
169.66998
169.66998
169.66998
169.66998
169.66998
169.66998
169.66998
169.66998
169.66998
169.66998
169.66998
169.66998
169.66998
169.66998
169.66998
169.66998
169.66998
169.66998
169.66998
169.66998
169.66998
585.76158
585.76158
585.76158
227.80796
585.76158
227.80796
227.80796
585.76158
585.76158
585.76158
227.80796
227.80796
169.66998
169.66998
169.66998
169.66998
169.66998
169.66998
169.66998
169.66998
169.66998
169.66998
169.66998
169.66998
169.66998
169.66998
169.66998
169.66998
169.66998
169.66998
169.66998
169.66998
169.66998
169.66998
169.66998
169.66998
169.66998
169.66998
169.66998
169.66998
169.66998
169.66998
169.66998
169.66998
169.66998
169.66998
169.66998
169.66998
169.66998
169.66998
169.66998
169.66998
169.66998
169.66998
169.66998
169.66998
169.66998
169.66998
169.66998
169.66998
169.66998
169.66998
169.66998
169.66998
169.66998
169.66998
169.66998
169.66998
169.66998
169.66998
169.66998
169.66998
169.66998
169.66998
169.66998
169.66998
169.66998
169.66998
169.66998
169.66998
169.66998
169.66998
169.66998
169.66998
227.80796
227.80796
227.80796
227.80796
227.80796
227.80796
227.80796
227.80796
169.66998
169.66998
169.66998
169.66998
169.66998
169.66998
585.76158
585.76158
295.99045
3.2653651
0
0
14.415337
0
0
0
216.52521
281.7593
0
0
0
362.76407
574.32499
91.064055
470.41668
0
0
3.4379507
5.5117378
63.946066
198.98825
0
0
0
9.0552866
107.27077
0
319.79432
358.04271
614.61837
407.92893
0
0
0
122.51043
323.91411
167.30094
144.52169
0
0
108.78692
0
290.07184
555.3263
130.17241
115.60048
213.11176
0
0
0
0
420.08155
402.0911
496.58547
564.939
9.0552181
0.92419501
9.051534
107.2705
193.49975
313.039
20.500188
0
0
40.825786
1.3253232
53.701755
107.27317
0
329.9192
256.34655
417.6861
272.7764
295.10029
305.57393
292.66038
484.6236
445.29072
316.70753
575.5456
606.59718
598.41734
627.15789
622.60029
474.08997
523.40874
459.40293
598.93031
0
121.56468
228.23849
181.80955
197.53544
343.71098
535.04323
0
57.722363
22.523335
12.601249
0
0
0
50.405912
0.13361002
9.428116
193.51264
23.440828
53.205428
109.81632
184.33565
271.80172
376.54072
425.24479
313.8675
408.14365
376.54012
271.63662
204.24853
193.49536
313.03558
313.03111
140.49747
0
0
254.28841
218.56567
336.43524
0
556.80014
82.57001
104.6357
79.013023
219.00878
347.74448
605.10247
607.85076
194.52383
264.48852
89.272786
552.57097
462.86883
0
0
9.7815722
0
63.953652
152.58039
186.96561
37.14114
0
168.41874
357.25485
375.88544
0
574.66674
636.2439
638.22036
644.23407
0
0
0
0
0
0
0
25.208662
0
0
0
0
0
0
0
126.37611
203.43379
97.434106
308.03353
106.99126
144.5118
226.70042
0
0
391.68456
376.03453
203.16616
270.43042
330.98495
0
0
68.615702
0
192.33458
279.82337
401.09009
633.01383
614.89497
606.85973
542.47834
451.14073
522.75106
22.751858
28.605495
102.41236
0
0
475.52662
463.16469
459.53456
563.61266
553.24335
528.00559
508.96061
121.52028
71.486164
142.38263
45.697094
154.67801
228.30027
105.2464
261.92861
142.39249
0
0
0
0
0
18.866185
18.880207
33.704327
22.471786
0
0
0
355.46483
248.04718
394.78161
240.50565
319.40766
518.59986
504.29678
534.09657
457.03157
502.3629
647.01462
617.11752
528.6147
620.74832
630.846
629.02927
637.37779
593.07898
519.86408
598.03598
572.28069
503.92705
556.21432
236.52621
350.37145
228.91124
320.25455
226.23544
553.43465
233.04164
222.66758
187.40492
85.799825
425.33346
527.81858
429.24027
0
0
160.24353
283.01379
374.88708
338.61613
297.98254
308.85953
308.84953
543.54457
429.16467
500.37466
461.02811
458.97753
429.16559
549.48074
534.7999
440.41626
343.66652
337.12545
339.36447
312.19109
330.79709
0
0
0
0
0
0
61.753634
44.947448
37.479062
0
0
0
114.07678
0
58.216013
50.116199
2.050075
30.703811
82.433861
57.641045
32.256626
84.286684
191.01529
191.02625
224.91436
191.02302
71.49938
117.29709
81.801515
326.69765
389.7544
420.691
425.3069
370.57064
424.08829
261.91682
289.58826
261.91767
211.44984
152.48185
153.17669
549.29302
488.98569
515.89921
488.98064
384.31113
449.34188
0
0
)


1098
(
536.2201
536.2201
536.2201
536.2201
536.2201
536.2201
536.2201
54.707719
146.59789
536.2201
536.2201
536.2201
536.2201
536.2201
536.2201
139.7053
536.2201
536.2201
54.707719
536.2201
536.2201
536.2201
536.2201
536.2201
536.2201
76.540469
536.2201
536.2201
536.2201
536.2201
536.2201
536.2201
536.2201
536.2201
536.2201
536.2201
536.2201
536.2201
536.2201
536.2201
139.7053
76.540469
146.59789
146.59789
146.59789
536.2201
536.2201
536.2201
536.2201
536.2201
536.2201
536.2201
536.2201
536.2201
536.2201
536.2201
536.2201
76.540469
536.2201
536.2201
536.2201
536.2201
83.532085
83.532085
54.707719
536.2201
536.2201
83.532085
151.23807
536.2201
536.2201
226.04457
536.2201
536.2201
536.2201
536.2201
536.2201
536.2201
536.2201
536.2201
536.2201
54.707719
80.622729
149.97677
536.2201
536.2201
536.2201
536.2201
536.2201
536.2201
80.622729
80.622729
151.23807
80.622729
80.622729
536.2201
536.2201
536.2201
80.622729
80.622729
536.2201
80.622729
536.2201
536.2201
536.2201
536.2201
536.2201
536.2201
536.2201
536.2201
536.2201
536.2201
151.23807
536.2201
536.2201
536.2201
536.2201
536.2201
536.2201
536.2201
536.2201
536.2201
536.2201
536.2201
536.2201
536.2201
536.2201
536.2201
536.2201
536.2201
536.2201
536.2201
536.2201
536.2201
536.2201
536.2201
536.2201
536.2201
536.2201
536.2201
536.2201
536.2201
536.2201
536.2201
536.2201
536.2201
536.2201
536.2201
139.7053
536.2201
536.2201
536.2201
536.2201
536.2201
536.2201
536.2201
536.2201
536.2201
536.2201
536.2201
536.2201
536.2201
536.2201
536.2201
536.2201
536.2201
536.2201
536.2201
536.2201
536.2201
536.2201
536.2201
536.2201
536.2201
536.2201
536.2201
536.2201
536.2201
536.2201
536.2201
536.2201
536.2201
536.2201
536.2201
536.2201
149.97677
536.2201
536.2201
76.540469
83.532085
83.532085
536.2201
536.2201
536.2201
536.2201
536.2201
536.2201
332.68977
536.2201
536.2201
536.2201
536.2201
536.2201
536.2201
536.2201
536.2201
536.2201
536.2201
536.2201
536.2201
536.2201
536.2201
536.2201
536.2201
536.2201
536.2201
536.2201
536.2201
536.2201
536.2201
536.2201
536.2201
536.2201
536.2201
536.2201
536.2201
536.2201
536.2201
536.2201
536.2201
536.2201
536.2201
536.2201
536.2201
536.2201
536.2201
536.2201
536.2201
536.2201
536.2201
536.2201
536.2201
536.2201
536.2201
536.2201
153.13477
161.10597
381.92334
122.81483
151.32116
381.92334
129.78276
129.78276
129.78276
129.78276
129.78276
129.78276
129.78276
129.78276
129.78276
129.78276
129.78276
129.78276
129.78276
129.78276
129.78276
129.78276
129.78276
129.78276
129.78276
129.78276
129.78276
129.78276
129.78276
129.78276
129.78276
129.78276
129.78276
129.78276
129.78276
129.78276
129.78276
129.78276
129.78276
129.78276
129.78276
129.78276
129.78276
129.78276
129.78276
129.78276
129.78276
129.78276
129.78276
129.78276
129.78276
129.78276
129.78276
129.78276
129.78276
129.78276
129.78276
129.78276
129.78276
129.78276
129.78276
129.78276
129.78276
129.78276
129.78276
129.78276
129.78276
129.78276
129.78276
129.78276
129.78276
129.78276
129.78276
129.78276
129.78276
536.2201
536.2201
536.2201
536.2201
536.2201
536.2201
536.2201
536.2201
536.2201
536.2201
381.92334
381.92334
381.92334
381.92334
381.92334
381.92334
381.92334
381.92334
536.2201
536.2201
536.2201
536.2201
381.92334
381.92334
381.92334
381.92334
536.2201
536.2201
381.92334
381.92334
381.92334
381.92334
381.92334
381.92334
381.92334
381.92334
381.92334
381.92334
381.92334
381.92334
381.92334
381.92334
536.2201
536.2201
536.2201
536.2201
381.92334
381.92334
381.92334
381.92334
536.2201
536.2201
381.92334
381.92334
381.92334
381.92334
536.2201
536.2201
536.2201
536.2201
536.2201
536.2201
536.2201
536.2201
536.2201
536.2201
536.2201
536.2201
536.2201
536.2201
536.2201
536.2201
536.2201
129.78276
129.78276
129.78276
129.78276
129.78276
129.78276
129.78276
129.78276
129.78276
129.78276
129.78276
129.78276
129.78276
129.78276
129.78276
129.78276
129.78276
129.78276
129.78276
129.78276
129.78276
129.78276
129.78276
129.78276
129.78276
129.78276
129.78276
129.78276
129.78276
129.78276
129.78276
129.78276
129.78276
129.78276
129.78276
129.78276
129.78276
129.78276
129.78276
129.78276
129.78276
129.78276
129.78276
129.78276
129.78276
129.78276
129.78276
129.78276
129.78276
129.78276
129.78276
129.78276
129.78276
129.78276
129.78276
129.78276
129.78276
129.78276
129.78276
129.78276
129.78276
129.78276
129.78276
129.78276
129.78276
129.78276
129.78276
129.78276
129.78276
129.78276
129.78276
129.78276
129.78276
129.78276
129.78276
129.78276
129.78276
129.78276
129.78276
129.78276
129.78276
129.78276
129.78276
129.78276
536.2201
129.78276
129.78276
129.78276
129.78276
129.78276
129.78276
129.78276
129.78276
129.78276
129.78276
129.78276
129.78276
129.78276
129.78276
536.2201
129.78276
129.78276
129.78276
129.78276
129.78276
129.78276
129.78276
129.78276
129.78276
129.78276
129.78276
129.78276
129.78276
381.92334
381.92334
129.78276
129.78276
129.78276
129.78276
129.78276
129.78276
129.78276
129.78276
129.78276
129.78276
129.78276
129.78276
129.78276
129.78276
129.78276
536.2201
129.78276
129.78276
129.78276
129.78276
129.78276
129.78276
129.78276
129.78276
129.78276
129.78276
129.78276
129.78276
129.78276
129.78276
129.78276
129.78276
129.78276
129.78276
129.78276
129.78276
129.78276
129.78276
129.78276
129.78276
129.78276
129.78276
129.78276
129.78276
129.78276
381.92334
381.92334
381.92334
381.92334
381.92334
381.92334
129.78276
129.78276
129.78276
536.2201
129.78276
129.78276
129.78276
129.78276
129.78276
381.92334
381.92334
381.92334
381.92334
129.78276
129.78276
129.78276
129.78276
129.78276
129.78276
381.92334
381.92334
381.92334
381.92334
381.92334
381.92334
381.92334
381.92334
536.2201
381.92334
129.78276
381.92334
129.78276
129.78276
129.78276
129.78276
129.78276
129.78276
129.78276
129.78276
129.78276
129.78276
129.78276
129.78276
129.78276
129.78276
129.78276
129.78276
129.78276
129.78276
129.78276
129.78276
129.78276
129.78276
129.78276
129.78276
129.78276
129.78276
129.78276
129.78276
129.78276
129.78276
129.78276
129.78276
129.78276
129.78276
129.78276
129.78276
129.78276
129.78276
129.78276
129.78276
129.78276
129.78276
129.78276
129.78276
129.78276
129.78276
129.78276
129.78276
129.78276
129.78276
129.78276
129.78276
129.78276
129.78276
129.78276
129.78276
129.78276
129.78276
129.78276
129.78276
129.78276
129.78276
129.78276
129.78276
129.78276
536.2201
536.2201
536.2201
381.92334
536.2201
381.92334
381.92334
536.2201
536.2201
536.2201
381.92334
381.92334
129.78276
129.78276
129.78276
129.78276
129.78276
129.78276
129.78276
129.78276
129.78276
129.78276
129.78276
129.78276
129.78276
129.78276
129.78276
129.78276
129.78276
129.78276
129.78276
129.78276
129.78276
129.78276
129.78276
129.78276
129.78276
129.78276
129.78276
129.78276
129.78276
129.78276
129.78276
129.78276
129.78276
129.78276
129.78276
129.78276
129.78276
129.78276
129.78276
129.78276
129.78276
129.78276
129.78276
129.78276
129.78276
129.78276
129.78276
129.78276
129.78276
129.78276
129.78276
129.78276
129.78276
129.78276
129.78276
129.78276
129.78276
129.78276
129.78276
129.78276
129.78276
129.78276
129.78276
129.78276
129.78276
129.78276
129.78276
129.78276
129.78276
129.78276
129.78276
129.78276
381.92334
381.92334
381.92334
381.92334
381.92334
381.92334
381.92334
381.92334
129.78276
129.78276
129.78276
129.78276
129.78276
129.78276
536.2201
536.2201
157.24462
98.660327
0
0
109.84186
0
0
0
59.515023
138.96267
0
0
0
227.01445
509.53052
22.930372
528.20906
0
0
103.76744
105.84581
0
39.939964
0
0
0
73.454053
1.79328
0
187.07367
342.14613
599.6996
421.2991
0
0
0
14.160156
192.41321
21.416422
0
0
0
0.6730836
0
356.11811
596.58987
0
1.2277537
95.233808
0
0
0
0
292.83341
270.40376
395.31563
500.3506
73.453799
19.926578
73.451237
1.7963546
232.80475
342.23013
84.159337
0
0
115.77407
67.23964
50.268941
1.794203
0
291.29376
310.47286
449.55688
183.35127
193.43139
232.55995
172.61752
391.27938
354.20748
269.37744
559.13388
575.87519
558.18488
670.77669
620.06797
523.01103
511.52193
491.92931
654.84966
0
128.20466
112.43198
105.84859
128.1432
288.65293
628.56957
0
7.1123274
40.533228
7.1910689
0
0
0
118.7095
3.9536873
10.432998
232.81522
47.626756
8.7032403
4.4619993
108.78297
255.91672
346.49915
441.90347
342.49825
376.5712
346.49986
255.94052
242.63942
232.79895
342.22994
342.22205