/*--------------------------------*- C++ -*----------------------------------*\
  =========                 |
  \\      /  F ield         | OpenFOAM: The Open Source CFD Toolbox
   \\    /   O peration     | Website:  https://openfoam.org
    \\  /    A nd           | Version:  8
     \\/     M anipulation  |
\*---------------------------------------------------------------------------*/
/*   Windows 32 and 64 bit porting by blueCAPE: http://www.bluecape.com.pt   *\
|  Based on Windows porting (2.0.x v4) by Symscape: http://www.symscape.com   |
\*---------------------------------------------------------------------------*/
FoamFile
{
    version     2.0;
    format      ascii;
    class       scalarListList;
    location    "constant/vegetation";
    object      F;
}
// * * * * * * * * * * * * * * * * * * * * * * * * * * * * * * * * * * * * * //


394
(

1709
(
1.2919933e-05
0.00021586361
7.4713244e-05
0.00016980961
4.2854764e-05
1.1667976e-05
5.081026e-06
5.3466002e-05
1.3230519e-05
3.6600102e-06
1.5631785e-05
3.4701467e-05
2.0149916e-05
2.1381118e-05
1.7654625e-05
2.1946651e-05
1.7983209e-05
1.8391481e-05
1.8236211e-05
2.0545879e-05
2.0901457e-05
2.0735263e-05
2.3081078e-05
2.3049556e-05
2.3116405e-05
2.3174497e-05
2.0526517e-05
2.2965573e-05
2.2532026e-05
1.7631214e-05
2.2063835e-05
2.2033591e-05
2.0464344e-05
2.2462046e-05
2.2434069e-05
2.3150923e-05
2.2973698e-05
2.1856798e-05
2.2617241e-05
2.2471402e-05
2.1052897e-05
2.2562972e-05
2.277767e-05
2.0760696e-05
2.2690361e-05
2.269051e-05
1.7153864e-05
1.8546548e-05
1.77394e-05
2.2945407e-05
2.2928233e-05
2.2990061e-05
2.3022898e-05
2.0061016e-05
2.3595811e-05
2.3444506e-05
1.8244955e-05
0.0044365668
0.0040856029
0.00085762277
0.00033269172
0.00020521214
0.00013352224
4.9198847e-05
0.00024613568
0.00010087703
0.00017917969
4.9973425e-05
4.5875401e-05
3.2692607e-05
6.2426838e-06
6.5465758e-06
5.9078319e-06
4.5272349e-05
8.5008795e-06
1.0720659e-05
5.6496365e-06
3.1663957e-06
2.9916489e-06
3.3150143e-06
2.6052663e-06
0.00072511989
0.0003970914
0.0002009988
0.00060240614
0.00018960709
5.3256337e-06
8.027259e-06
7.8979466e-06
8.9472296e-06
5.2963033e-06
8.4551601e-06
7.9839393e-06
5.8574914e-06
8.479038e-06
9.8711576e-06
8.5307124e-06
8.8868587e-06
1.3002722e-06
1.3531633e-06
1.2018972e-06
1.6365454e-06
1.6368927e-06
1.6334084e-06
1.6349044e-06
1.6261265e-06
1.6231745e-06
1.5370348e-06
1.3356767e-06
1.581273e-06
1.7627207e-06
1.4417156e-06
1.7517092e-06
1.6340364e-06
1.6368153e-06
1.4403699e-06
1.1682209e-06
1.4309978e-06
5.4576969e-07
2.1414455e-06
8.8955806e-06
5.8742058e-06
9.3846282e-06
1.7546266e-06
1.6587901e-06
8.8535967e-06
2.0131423e-06
2.0561567e-06
5.9450617e-06
9.3647041e-06
9.4404743e-06
1.8092997e-06
1.6580258e-06
2.0345354e-06
2.03079e-06
1.7116864e-06
1.6440733e-06
1.3672898e-06
1.3663419e-06
1.4110849e-06
1.4933268e-06
1.6361931e-06
1.6232664e-06
2.0426375e-06
1.3652199e-06
1.3662875e-06
1.342753e-06
1.3818761e-06
2.0552169e-06
2.1111706e-06
1.6116808e-06
1.6917586e-06
1.6195494e-06
1.6856719e-06
2.0781142e-06
2.0615245e-06
1.7356778e-06
1.6932166e-06
2.1996156e-06
1.8088044e-06
1.8158223e-06
2.0907891e-06
2.0839399e-06
7.8437795e-06
1.3639589e-06
1.8816576e-06
9.7914272e-06
1.8128827e-06
1.3775719e-06
1.6014311e-06
1.7107286e-06
1.9417284e-06
1.995065e-06
2.3701064e-06
1.6293864e-06
1.6287966e-06
1.6235042e-06
1.6282041e-06
1.5222843e-06
1.6320672e-06
1.62113e-06
1.6263132e-06
1.6685729e-06
1.8400588e-06
2.0083077e-06
1.9306042e-06
1.6332406e-06
1.6547e-06
1.6396202e-06
1.6686875e-06
1.6342043e-06
1.5826998e-06
1.5794965e-06
1.5735349e-06
1.837188e-06
1.6110241e-06
1.5735782e-06
1.7324643e-06
1.5745916e-06
1.5788376e-06
1.5722575e-06
1.6601554e-06
1.6573681e-06
2.0322024e-06
1.9975496e-06
1.2663718e-06
1.2989301e-06
1.2336021e-06
1.6356548e-06
1.6287126e-06
1.6289588e-06
1.6366711e-06
1.6314729e-06
1.6255014e-06
1.6359833e-06
1.6270859e-06
1.6290242e-06
1.619653e-06
1.621202e-06
1.6215558e-06
1.4979125e-06
1.711582e-06
1.3737779e-06
1.7677731e-06
1.6322676e-06
1.9963487e-06
1.9977901e-06
1.4153239e-06
2.0166655e-06
1.6926883e-06
1.6344935e-06
1.6408572e-06
1.649327e-06
1.6489268e-06
1.4645548e-06
1.629743e-06
1.1074749e-06
1.6440916e-06
1.4393346e-06
1.6223744e-06
2.0120917e-06
1.9123199e-06
9.1894465e-07
1.6737585e-06
1.4748815e-06
1.6064528e-06
2.0232825e-06
1.6195929e-06
2.0221876e-06
1.6187414e-06
1.6185608e-06
1.7105055e-06
1.7811206e-06
1.6773759e-06
1.65602e-06
1.9623149e-06
2.0403592e-06
1.8049741e-06
2.0317206e-06
2.0293218e-06
1.8136538e-06
2.0483305e-06
2.0380863e-06
2.036499e-06
2.0418732e-06
2.0329834e-06
2.0277157e-06
2.0368029e-06
1.8292457e-06
1.8767525e-06
1.627869e-06
1.6610556e-06
1.9978383e-06
1.9586429e-06
2.0030476e-06
2.0322724e-06
1.9531153e-06
1.6118245e-06
1.6325695e-06
1.6250437e-06
1.5796821e-06
1.3509674e-06
1.5799227e-06
1.3680478e-06
1.6138741e-06
1.3754665e-06
1.6959998e-06
1.8314727e-06
1.6756655e-06
1.3919183e-06
1.6279493e-06
1.3890962e-06
1.730408e-06
1.7018427e-06
1.5762802e-06
1.3616288e-06
1.5777716e-06
1.3672803e-06
1.5731413e-06
1.3608036e-06
1.6222152e-06
1.598906e-06
2.0842863e-06
2.0571889e-06
2.10171e-06
2.400305e-06
2.0705968e-06
2.0349949e-06
2.0231939e-06
2.0230869e-06
2.0312744e-06
2.0332143e-06
2.0198898e-06
2.0303186e-06
2.0302433e-06
1.5715434e-06
1.3990028e-06
1.4797825e-06
1.8283402e-06
1.5698426e-06
1.608636e-06
2.0230644e-06
1.7080664e-06
1.9812853e-06
2.0784962e-06
1.9837452e-06
1.939193e-06
1.9353248e-06
1.600544e-06
1.9359297e-06
2.0204906e-06
1.6398039e-06
1.953307e-06
1.9356923e-06
1.6217729e-06
1.9245532e-06
1.6186105e-06
1.9185066e-06
1.9206397e-06
1.9246901e-06
1.6188057e-06
1.9195059e-06
1.9175252e-06
1.6181502e-06
1.9174756e-06
0.00065350504
0.00065177272
0.00045781584
0.00079394589
2.0195099e-05
1.7697784e-05
2.2000805e-05
1.8242181e-05
1.8373341e-05
1.975059e-05
2.0666111e-05
1.5385376e-05
1.7593183e-05
1.7958284e-05
1.7572296e-05
2.1498729e-05
1.9085805e-05
2.1901148e-05
1.9520337e-05
2.010375e-05
2.2864827e-05
2.3324339e-05
3.4790573e-05
1.7652573e-05
9.280979e-06
1.6569553e-05
1.765627e-05
2.2182802e-05
2.2099655e-05
2.0743256e-05
2.1815334e-05
2.2307075e-05
2.241929e-05
2.1092001e-05
2.2712143e-05
2.2905897e-05
2.0784324e-05
2.2705929e-05
2.2754333e-05
1.8576475e-05
2.3694036e-05
2.3466038e-05
2.4006341e-05
2.4035414e-05
2.3590857e-05
2.376379e-05
1.8262824e-05
0.003870398
0.00080686338
0.00080346812
0.00011208071
0.00017506317
0.00023868928
2.8386941e-05
0.00011212586
0.00023893175
1.7319408e-05
0.00052926544
2.7387895e-05
2.2517764e-05
2.0808768e-05
2.8315551e-05
1.6901691e-05
2.5468098e-05
1.7895446e-05
1.0649092e-05
1.242577e-05
1.2154602e-05
0.0016697244
0.0030787625
0.0009116386
0.0013775747
0.00027465107
3.3283831e-05
2.9910481e-05
4.4845352e-05
3.219592e-05
4.1988904e-06
3.5949831e-05
5.8120043e-06
4.7419069e-06
5.1533624e-06
3.9296631e-06
5.1113215e-06
7.0925563e-06
5.6160203e-06
6.7432229e-06
5.6203173e-06
4.9377376e-06
5.8498198e-06
4.1805657e-05
3.7710222e-05
5.8969702e-06
2.2490333e-05
2.1336417e-05
3.2148549e-05
2.325022e-05
3.2468643e-05
2.4907822e-05
2.4654547e-05
5.8120326e-06
5.9482291e-06
8.4762955e-06
7.9582447e-06
6.0989483e-06
6.0990355e-06
6.0679079e-06
6.0804484e-06
6.0172715e-06
6.008376e-06
6.1300404e-06
6.2144302e-06
6.1430478e-06
5.2618428e-06
5.441002e-06
8.4179969e-06
5.6910282e-06
5.6612977e-06
5.6214327e-06
6.0279784e-06
6.0538279e-06
7.2756055e-06
5.6915012e-06
5.67292e-06
5.7013002e-06
7.8756795e-06
8.2198292e-06
9.0340085e-06
8.5135424e-06
8.5332927e-06
8.5138101e-06
4.9126881e-06
4.9261728e-06
5.9289133e-06
3.0301788e-05
4.9153365e-06
4.4148504e-05
6.0171302e-06
6.0412164e-06
5.0601763e-06
5.6373787e-06
5.6339934e-06
6.1424893e-06
6.5983566e-06
5.5329859e-06
8.2648238e-06
8.4550033e-06
8.5072249e-06
5.6344379e-06
5.6807089e-06
5.5960629e-06
5.6278708e-06
5.5808542e-06
5.5309052e-06
5.2443321e-06
7.3039212e-06
5.6721255e-06
8.2470867e-06
8.4265764e-06
8.4571211e-06
5.7593098e-06
5.9917071e-06
5.7237002e-06
8.2457223e-06
7.2692482e-06
6.1074787e-06
6.8743027e-06
3.3153763e-06
8.4751245e-06
7.4906017e-06
5.8097547e-06
4.971069e-06
5.8074396e-06
4.9648561e-06
5.7670932e-06
5.8013513e-06
5.7504694e-06
5.851559e-06
5.6918252e-06
5.8070703e-06
6.1986659e-06
5.8016375e-06
4.3781618e-06
6.0995037e-06
6.8513787e-06
5.5461661e-06
4.5555004e-06
5.6388022e-06
5.6377163e-06
2.4742144e-05
4.1025605e-05
5.6329505e-06
5.6414717e-06
5.6089336e-06
5.6195275e-06
5.5635411e-06
5.5453905e-06
5.2589291e-06
5.9488067e-06
3.2289771e-06
5.9346395e-06
5.1767664e-06
7.2616749e-06
8.1882965e-06
5.3693752e-06
7.7328736e-06
6.4016259e-06
5.420173e-06
6.2921401e-06
5.1449529e-06
6.5475503e-06
6.1078808e-06
8.1254433e-06
7.220305e-06
5.9172931e-06
5.4554222e-06
3.355603e-05
5.9630804e-06
6.9180557e-06
3.1882576e-05
5.5082095e-06
5.8016535e-06
5.5864498e-06
8.3945661e-06
1.8764508e-06
7.3319411e-06
2.6982809e-05
3.9352316e-05
8.1186867e-06
7.8989109e-06
8.0533574e-06
7.5305934e-06
8.4134908e-06
8.4913105e-06
8.5317156e-06
5.7531343e-06
5.9907921e-06
7.5290576e-06
7.6182126e-06
7.3839419e-06
6.135416e-06
6.3820991e-06
6.3284407e-06
7.0471427e-06
8.3025449e-06
8.4837695e-06
8.5145726e-06
5.5873901e-06
5.5559342e-06
5.6435709e-06
5.9968124e-06
9.5709293e-06
9.7204304e-06
8.5191124e-06
8.4675726e-06
8.0417668e-06
8.7047476e-06
5.8113279e-06
6.1004564e-06
5.8107369e-06
6.0959609e-06
5.7811473e-06
6.0524846e-06
5.7925463e-06
6.0898842e-06
5.7317063e-06
6.0341918e-06
5.7117075e-06
6.0067759e-06
5.8049404e-06
6.1108843e-06
6.2017758e-06
7.4562261e-06
5.8039792e-06
6.1206117e-06
6.050528e-06
6.0773854e-06
6.2921998e-06
6.7434524e-06
7.5623182e-06
7.196176e-06
7.619739e-06
6.6408602e-06
6.8515272e-06
6.5663977e-06
7.8700265e-06
8.1084559e-06
6.940215e-06
8.5766341e-06
9.8428745e-06
5.7004019e-06
4.9722543e-06
4.9466173e-06
5.6473092e-06
5.6295999e-06
4.8415097e-06
5.7995595e-06
5.9538987e-06
6.0733134e-06
6.0744835e-06
6.6896887e-06
6.2726739e-06
4.9677584e-06
5.6877077e-06
4.9560414e-06
5.6818427e-06
5.9079142e-06
4.9727212e-06
8.2593385e-06
9.5047792e-06
8.1707488e-06
7.3474721e-06
6.7594217e-06
7.457709e-06
5.988937e-06
5.2245581e-06
5.9328803e-06
5.2699182e-06
6.3191987e-06
6.0513643e-06
7.6863341e-06
6.4619934e-06
6.7131215e-06
6.8104366e-06
6.8561939e-06
3.6200694e-06
6.7589613e-06
5.7508199e-06
3.5000697e-06
0.0011622649
0.00037198422
4.4791295e-05
0.00038179451
0.00013287067
0.00027020969
0.0013628351
0.00086500254
0.00099530563
0.00082526678
0.0011207129
0.0022125288
0.0031505891
0.0013895428
0.00078744358
0.00059904124
0.00040697254
0.00035362391
0.00035096479
0.0078014823
0.0002855204
0.00088036159
0.0001915524
0.00024811741
0.00011177933
0.00012126365
8.3281069e-05
5.8890987e-05
0.00041272799
0.00010979383
0.00019895814
0.00013197423
0.00035740849
0.00018530934
6.6332308e-05
0.00011023054
5.7702671e-05
4.5461881e-05
5.3068225e-05
3.8104606e-05
0.00013804193
4.3786297e-05
3.6580878e-05
2.6249282e-05
2.2184399e-05
6.0255866e-05
0.0011849538
0.0012862615
0.0028793637
0.00011062791
0.00015121443
0.00014517463
0.00010779345
0.00011281589
0.00011558125
0.00015683376
0.00016186114
0.00020915939
0.00011592794
0.00011696057
0.0001621382
0.00022428293
0.00016399557
2.3529588e-05
2.1322037e-05
2.4033047e-05
2.0882129e-05
2.6301884e-05
2.9389619e-05
3.0141326e-05
2.5664197e-05
2.6791921e-05
3.1458376e-05
2.7383009e-05
3.0730497e-05
2.3096191e-05
1.9851609e-05
2.0455946e-05
2.2514549e-05
1.711094e-05
1.9189001e-05
1.7420377e-05
1.8802422e-05
1.5224143e-05
1.3803922e-05
1.7672872e-05
1.3161167e-05
1.519302e-05
1.4506125e-05
1.5314167e-05
1.4585436e-05
1.6669419e-05
1.7599864e-05
1.834315e-05
1.5575768e-05
4.789111e-05
5.7853292e-05
4.9310643e-05
5.6085534e-05
4.0188458e-05
3.3805012e-05
3.4720379e-05
3.9055698e-05
4.1101477e-05
3.6370628e-05
3.5449545e-05
4.2250254e-05
4.6737823e-05
5.2841482e-05
5.461977e-05
4.5324431e-05
7.8106801e-05
6.8238079e-05
8.0916905e-05
6.6017399e-05
7.568566e-05
6.188586e-05
6.4139456e-05
7.280941e-05
3.7534948e-05
3.8876484e-05
1.9178348e-05
2.0385386e-05
1.8475764e-05
2.112989e-05
1.7342857e-05
1.5626394e-05
2.3528976e-05
1.6270368e-05
2.6495641e-05
2.2657938e-05
2.3548694e-05
2.545537e-05
2.9985921e-05
3.2809022e-05
3.408089e-05
2.8812885e-05
1.9506487e-05
1.7663256e-05
1.7866052e-05
1.9760103e-05
1.4926347e-05
1.4828872e-05
1.5754501e-05
1.5864346e-05
1.8033836e-05
2.0128087e-05
1.996086e-05
1.8166681e-05
1.4590663e-05
1.5466442e-05
1.4712252e-05
1.5619211e-05
2.0247203e-05
1.8311924e-05
1.8036229e-05
1.9944897e-05
1.4733052e-05
1.4660045e-05
1.5630366e-05
1.5660678e-05
1.7903618e-05
1.979986e-05
1.9784853e-05
1.7912498e-05
1.4896557e-05
1.4668836e-05
1.5966067e-05
1.5714382e-05
1.5000209e-05
1.504909e-05
1.5998828e-05
1.5945985e-05
1.5070617e-05
1.507252e-05
1.6022631e-05
1.6017468e-05
1.8325178e-05
2.0260873e-05
1.8263966e-05
2.0339156e-05
1.8350535e-05
2.0348932e-05
2.0365168e-05
1.8340684e-05
1.4828585e-05
1.4919184e-05
1.5840881e-05
1.5745355e-05
1.5043721e-05
1.4992594e-05
1.5923844e-05
1.5984058e-05
1.8116191e-05
1.9924818e-05
1.8002498e-05
2.0070309e-05
1.8219218e-05
2.0291534e-05
1.8296162e-05
2.0196255e-05
0.00022758503
2.192111e-05
2.4870769e-05
2.8296089e-05
2.2349316e-05
2.5217105e-05
2.2913683e-05
2.2563689e-05
2.8464353e-05
3.2759999e-05
2.8327185e-05
2.8484613e-05
3.6388526e-05
6.1277389e-05
5.2147383e-05
5.8403345e-05
6.9163166e-05
3.8299375e-05
4.4609136e-05
5.0180916e-05
4.2538535e-05
3.8404881e-05
4.8179239e-05
4.1273643e-05
2.2709096e-05
2.5628417e-05
2.8248592e-05
2.2492417e-05
2.4844356e-05
2.2467802e-05
2.2294941e-05
2.7802814e-05
3.3185698e-05
2.8960659e-05
2.8154026e-05
3.5606516e-05
2.2875342e-05
2.8497385e-05
2.309278e-05
2.8993739e-05
2.3382977e-05
2.3260548e-05
2.92313e-05
2.9426005e-05
2.3325234e-05
2.9150088e-05
2.3452631e-05
2.9518097e-05
2.3459734e-05
2.3485743e-05
2.9560996e-05
2.9535484e-05
0.015001385
0.0067380535
0.00033623875
0.0012322058
0.0032791435
0.0042475532
0.00099136056
0.0004464323
0.0002906397
0.00052978253
0.0009600603
0.00012853788
0.000320906
0.00028430667
0.00016055562
0.0082052524
0.014267611
0.00041620657
0.00058789223
0.00050546922
0.00037134521
0.0006060428
0.00054570744
0.00044470971
0.00041088542
0.0004089509
0.00043183748
0.00051069539
0.00050906089
0.00050639304
0.00049614261
0.00029338201
0.00038580662
0.00036310049
0.00019709201
0.0002698793
0.0004731453
0.00045356767
0.00048955152
0.00050180734
0.00045862401
0.00048014927
0.00031875412
0.00034103579
0.00060370172
0.00058187981
0.00043125072
0.00039588689
0.0003146062
0.00044636779
0.0002148331
0.00029668319
0.0004341026
8.9725061e-05
0.00010205822
0.00010683201
8.6029947e-05
9.2868748e-05
0.00011548779
9.6456038e-05
0.0001109341
0.00032553116
0.00029122681
0.00034350221
0.00027633516
0.00035486851
0.00040107506
0.00037947761
0.00033968298
0.00037392815
0.00041986209
0.00039606544
0.00039515432
0.00030831382
0.0002461387
0.00026174541
0.00029135232
0.00019272245
0.00024364973
0.00020221189
0.00023157589
0.00015299667
0.00012148335
0.00012767361
0.00014496555
0.00016004637
0.00013878793
0.00013305153
0.00016738676
0.00018353548
0.00020678103
0.00021980344
0.00017319425
0.00017096832
0.00019958267
0.00017006511
0.00020036695
0.00014593776
0.00012330521
0.00014471775
0.00012472227
0.00027494334
0.0002332809
0.00023472496
0.00027096174
0.00032081032
0.00032703669
0.00038224802
0.00030928667
7.883343e-05
6.6408849e-05
7.722179e-05
6.8014036e-05
9.1631334e-05
0.00010529257
0.00010678388
9.0068285e-05
5.1093053e-05
5.7294241e-05
5.8857637e-05
4.9596415e-05
4.4495047e-05
4.3080136e-05
0.00029175067
0.00032320482
0.00030493913
0.00036018155
0.00037437207
0.0003164287
0.00048673691
0.00047717201
0.00044582793
0.00045437594
0.00044281975
0.00046231588
0.00041532732
0.0004325888
0.0003852509
0.00033100984
0.00032516057
0.00039230245
0.00024006902
0.00027759875
0.00028459418
0.00024601264
0.00037305577
0.00035369409
0.00033527086
0.00035190015
0.00029493598
0.00026513083
0.00025426565
0.00030842192
0.00032727175
0.00033763976
0.00031407658
0.00032230581
0.0003941436
0.00041557285
0.00038998836
0.00037065183
0.00045472689
0.0004361289
0.00040861131
0.00042545073
0.00033979635
0.00027769584
0.00032384084
0.00029054383
0.00035514396
0.0003136255
0.00036896381
0.00030272556
0.00049068254
0.00048900962
0.0004564049
0.00045790702
0.00047034203
0.00048203403
0.00045012394
0.00043957068
0.00039411389
0.00033378241
0.0003952653
0.00033315486
0.00038905657
0.00032264999
0.00032929555
0.00038048884
0.00026003114
0.00034507921
0.00031834666
0.00022412213
0.00031181165
7.2397916e-05
8.6019225e-05
9.7332412e-05
8.1328735e-05
0.00012309171
0.00010272209
0.00011563557
0.00013875611
0.00025692421
0.00021358765
0.00024365289
0.00026722454
0.00022090324
0.00027978821
0.00027366956
0.00024654128
0.00014660837
0.00017607648
0.00017779061
0.0001634192
0.00020727589
0.00017688629
0.00019924258
0.00021302661
0.00018189277
0.00022893159
0.00021920794
0.00020672904
0.00012781421
0.00014965926
0.00014850584
0.00013963677
5.9148541e-05
5.1062436e-05
5.5469821e-05
6.4809808e-05
4.4236449e-05
6.87554e-05
8.02089e-05
8.8389729e-05
7.5146025e-05
0.00010993735
9.3841591e-05
0.00010314972
0.00012114766
0.00028484605
0.00025188381
0.0002849051
0.00025362652
0.0002769899
0.00028209158
0.00025166612
0.00024771648
0.0002411987
0.00021743156
0.00025174205
0.00022755771
0.00026998156
0.00026144544
0.00023518876
0.00024236949
0.30549471
0.031237598
0.055236719
0.0049426407
0.0098284152
0.0066673155
0.10381443
0.014818685
0.0039336096
0.0082919973
0.0028333716
0.0020829688
0.0012346946
0.00075633742
0.00058361427
0.00023170812
0.00072827959
0.00039385712
0.0012433445
0.00029586648
0.00025916845
0.00030492383
0.00020110515
0.1142905
0.018747959
0.011380836
0.04256957
0.011247847
0.0011329228
0.00058324107
0.0012181506
0.00084860945
0.0011831773
0.0010844089
0.00055424426
0.00063082696
0.001208527
0.00083943166
0.0012132595
0.0011341631
0.00015529334
0.00012075927
7.1833426e-05
0.00040432073
0.00041159206
0.00041989407
0.00042140927
0.00039912924
0.00038701407
0.00037498835
0.00036442024
0.00019030174
0.00016790066
0.00021102389
0.00014524035
0.00011089551
0.00013341247
9.405771e-05
8.5361077e-05
0.00010472183
0.00010309733
0.00042152115
0.00019860306
0.00064711845
0.00014811832
0.00078191925
0.00071768045
9.6437289e-05
0.00011399296
0.00022391355
0.00065157123
0.00013622759
0.00033739439
0.00034403079
0.00010891621
9.9627923e-05
0.00023705674
0.0002388523
0.00026663105
0.0002280479
0.00032233039
0.00013986648
0.00013260603
0.00023779051
0.00023961659
0.00022261957
0.00022286874
0.00011315729
0.00013066304
0.00020212761
0.00023835087
0.00014062034
0.00013143721
0.00011420808
0.00012836684
0.00017255808
0.00015792794
9.2476415e-05
8.7382927e-05
9.0905654e-05
0.00015601466
0.00023052048
0.00028784201
0.00010504506
0.00010184144
0.00013776461
0.0001223427
0.00077147213
0.0001294879
0.0003498715
0.00036409027
0.00035954341
0.00036583458
0.00024575664
0.00031402262
0.00035338932
0.0003259842
0.00011300082
8.9905607e-05
0.0001514603
0.00034358788
0.0003218414
0.00019804986
0.00028256239
0.00030828755
0.00017993051
0.00014066756
9.7088534e-05
0.00013136823
0.00030207232
0.00031110314
0.00030189753
0.00019381909
0.00030161304
0.00017272345
0.00014251719
0.00030523355
0.00031183744
0.00029993327
0.00029091836
0.00014298442
0.00011539475
9.9341668e-05
0.00013783554
0.00013146359
6.1765799e-05
0.00039553504
0.00035577883
0.00036067609
0.00041703715
0.00041570185
0.00036365143
0.00042038992
0.00036572963
0.00040876301
0.00034548759
0.00033630866
0.00037292007
0.00038559619
0.00033716164
0.00033014909
0.00035522357
0.00017320515
0.00022039984
0.00017657234
0.0002488719
0.00023670572
0.00015841706
0.0001646806
0.00010191981
0.00015166541
0.00012287904
9.524843e-05
0.00010776166
9.3796217e-05
0.00012202108
0.00011359922
0.00010873612
9.2553631e-05
0.00012345436
0.00016269308
0.00034750447
0.00027108925
0.00075738876
0.0001121551
0.00010191941
0.00080243268
0.00011343788
0.00010147054
0.00078128135
0.00010996688
0.0008018802
0.00011295826
0.00017848064
0.00018917358
0.00016201904
0.00014479335
9.1940864e-05
8.7789673e-05
8.6017125e-05
0.00010940986
0.00010765305
9.0261315e-05
0.0001142991
0.0002086451
0.00025385475
0.00010276335
0.00011435004
0.00011505507
0.00010052522
0.00011078487
0.00011256397
0.00013294666
0.00012611296
0.00035799382
0.00027915661
0.00029936306
0.00035785354
0.00010413891
0.00011747772
8.8257404e-05
0.00010201958
0.00030578238
0.00023133736
0.00030907057
0.00024036858
0.0003069256
0.00023434218
0.00022504613
0.00017281992
0.00030911859
0.00026400337
0.00015788846
0.00015326869
0.00014778973
0.0001444387
0.00030893688
0.00023435478
0.00031113693
0.00024050002
0.00029373504
0.00023057611
0.00024951445
0.00029029249
0.00010282066
0.00011219384
0.00012876472
0.00016888609
9.6995263e-05
0.00010431336
0.00010565466
0.00010208023
0.0001144227
0.00011469717
0.00010073924
0.00011392782
0.00011320907
0.00017344593
0.00020751387
0.00029644246
0.00027479891
0.00015414409
0.00012539389
0.00011875859
0.00012660099
0.00012229644
0.00011701353
0.00012408212
0.00013595292
0.0001167095
0.00010555584
0.00011494227
0.00011603342
0.00010657784
0.00011411132
0.00012166702
0.0001136018
0.00012139545
0.00011351053
0.00012099491
0.00012129016
0.0001177225
0.00011128697
0.00011877714
0.0001204773
0.00011220079
0.00011971677
0.00993508
0.0048631197
0.0035842444
3.5763018e-05
1.4288764e-05
1.88368e-05
4.6056299e-05
4.79874e-05
4.5846836e-05
4.6921817e-05
0.00082050813
0.00020017364
0.000231196
0.00072726726
0.00010446872
4.6834354e-05
0.00022637045
4.3055068e-05
0.00020783423
2.8738271e-05
8.3289937e-05
0.00030079566
0.00028812898
2.7779602e-05
2.9428642e-05
2.1806088e-05
3.0508042e-05
2.6719806e-05
6.8569793e-05
0.00025433202
0.00022407246
4.4869821e-05
1.3395872e-05
1.4587825e-05
1.5801122e-05
1.4000118e-05
1.5417556e-05
5.6202685e-05
5.1340731e-05
5.4271751e-05
5.6867323e-05
5.6143153e-05
5.6934197e-05
5.5165105e-05
5.4564175e-05
5.5458393e-05
4.8202573e-05
4.8918016e-05
4.6765743e-05
4.757419e-05
5.7741307e-05
5.7337867e-05
5.7407087e-05
5.7972652e-05
5.8543872e-05
5.7766446e-05
5.8573321e-05
5.6881899e-05
5.7033748e-05
5.7906095e-05
5.848385e-05
5.8549289e-05
4.4444457e-05
4.2717743e-05
4.5023149e-05
4.3433136e-05
5.8097224e-05
5.7583738e-05
5.688447e-05
5.7251234e-05
8.4831821e-05
5.6598732e-05
5.6087517e-05
5.8553369e-05
3.9365604e-05
4.7230337e-05
5.3528979e-05
5.3224562e-05
4.7150838e-05
5.3135859e-05
5.2085497e-05
4.4699812e-05
4.4849612e-05
5.3054484e-05
5.3605321e-05
4.5632321e-05
4.7122813e-05
5.6489727e-05
5.1845526e-05
5.688358e-05
5.3741787e-05
8.3926822e-05
4.6453477e-05
4.9038569e-05
4.5905548e-05
4.6983371e-05
5.5733994e-05
5.3310424e-05
5.6211739e-05
4.5307042e-05
5.0236431e-05
5.4629538e-05
5.4072295e-05
5.7095604e-05
5.1548113e-05
5.8330737e-05
5.3252869e-05
5.8010165e-05
5.8232906e-05
5.1894468e-05
5.648596e-05
5.1091371e-05
5.2345904e-05
5.3991703e-05
5.332544e-05
5.2195171e-05
7.9974433e-05
5.671194e-05
4.9823993e-05
0.00012077606
8.47948e-05
8.6625735e-05
5.4700879e-05
5.7671374e-05
5.5937183e-05
5.7111762e-05
5.6572057e-05
5.1557012e-05
5.635572e-05
5.676881e-05
5.7119808e-05
5.7743449e-05
8.3600203e-05
5.4375222e-05
5.3264322e-05
5.9520558e-05
5.7875528e-05
7.8734815e-05
8.8202587e-05
8.7522961e-05
5.3500862e-05
5.0075353e-05
5.2614691e-05
5.4891848e-05
5.5960142e-05
5.3606782e-05
5.4300119e-05
5.6230312e-05
5.5294194e-05
4.4685131e-05
5.4293966e-05
5.4862491e-05
4.8776106e-05
4.590916e-05
5.2411541e-05
5.3301586e-05
4.8278123e-05
5.3262076e-05
5.7684999e-05
5.2953227e-05
5.7570963e-05
5.3192874e-05
5.7712055e-05
2.3740901e-05
5.3612783e-05
5.7908652e-05
4.2467543e-05
5.8481232e-05
5.8290305e-05
5.3265146e-05
5.7780383e-05
5.8165774e-05
5.8579564e-05
5.2585759e-05
5.6070486e-05
5.2658655e-05
5.6671901e-05
5.3391577e-05
5.7818246e-05
5.7954946e-05
5.7019598e-05
5.8577847e-05
5.7623072e-05
4.3381281e-05
4.7267534e-05
4.7023285e-05
4.4954353e-05
4.5404428e-05
3.911266e-05
4.19503e-05
4.5016424e-05
4.7246833e-05
4.6819361e-05
4.5439348e-05
4.6192108e-05
4.4653647e-05
4.4088017e-05
5.8356265e-05
5.7966495e-05
5.6689146e-05
5.7425851e-05
5.7119921e-05
8.0880155e-05
5.7372036e-05
5.958515e-05
5.0820504e-05
5.2485555e-05
8.3973422e-05
5.6608321e-05
5.7431671e-05
5.4229987e-05
5.514919e-05
5.6888357e-05
5.6050838e-05
5.7294541e-05
5.585438e-05
8.6264739e-05
5.0621218e-05
5.2973892e-05
0.0066498955
0.0038345775
0.0022044338
0.0011429057
0.0004094958
0.0003443654
0.0089842177
0.0033309347
0.00051993081
0.00014845781
0.00084113902
0.00072343515
0.00072921245
0.00014485951
0.00061828967
0.0010375695
0.00048069992
0.00015293964
0.00037671332
0.0006720769
0.0010556636
)


2638
(
2.2231711e-05
0.000103919
3.5484145e-05
0.0039061703
0.00035341251
0.00042765968
0.00015740484
6.9064086e-07
5.6311433e-07
4.8299116e-07
4.9531222e-07
4.7115777e-07
5.4023182e-07
5.5795662e-07
5.2296741e-07
5.0839262e-07
5.5029685e-07
7.0738049e-07
7.0559664e-07
4.598981e-07
7.679798e-07
5.9220099e-07
7.627355e-07
4.3541373e-07
4.4930566e-07
6.181079e-07
4.4741355e-07
6.7558223e-07
5.5865398e-07
7.0774338e-07
5.5911661e-07
6.0579511e-07
7.2531602e-07
7.8855814e-07
7.6268242e-07
7.7780476e-07
7.5166978e-07
5.3264997e-07
3.8522433e-07
4.0179825e-07
4.6317956e-07
4.4480451e-07
5.5693839e-07
4.0596318e-07
4.0987168e-07
4.1203925e-07
7.3927134e-07
7.9143818e-07
7.7837122e-07
0.00028917684
2.0070654e-05
8.7818483e-06
9.1292939e-05
1.5411463e-05
3.4711835e-05
2.0216795e-05
2.1129527e-05
1.7848405e-05
1.8294226e-05
1.8421575e-05
1.6950348e-05
1.8651848e-05
1.7567726e-05
2.0002019e-05
1.8389689e-05
0.004385108
0.0041335434
0.0018451298
0.00072044859
0.00033728322
0.00022201619
8.3199993e-05
0.0004117868
0.00016914159
0.00030274863
8.5151208e-05
7.8227693e-05
5.591598e-05
1.0713285e-05
1.1233122e-05
1.0140688e-05
7.656534e-05
1.4593469e-05
1.842383e-05
9.7055073e-06
5.4490177e-06
5.1486222e-06
5.7044527e-06
4.4842006e-06
0.00033525771
0.00018444256
9.5801073e-05
0.00028518036
8.9637518e-05
1.7572241e-06
2.6471208e-06
2.6160769e-06
2.960863e-06
1.7236124e-06
2.7601394e-06
2.5976884e-06
6.3965049e-07
7.4556813e-07
6.2304291e-07
7.7668908e-07
1.9126719e-06
7.9696554e-07
9.6525184e-07
6.959037e-07
7.1760991e-07
5.7718202e-07
5.3457399e-07
7.5266872e-07
6.8553822e-07
7.5318306e-07
2.7868985e-06
3.2716203e-06
2.7943344e-06
2.8813726e-06
4.3465282e-07
6.5721754e-07
4.5368099e-07
7.0716297e-07
4.011296e-07
6.0754377e-07
7.2773943e-07
8.5918379e-07
8.1227468e-07
8.1088861e-07
8.1981508e-07
1.0059237e-06
1.0240598e-06
8.7161485e-07
8.8141029e-07
9.78479e-07
1.0087773e-06
9.0569341e-07
1.0227143e-06
5.3859307e-07
5.3786033e-07
5.333383e-07
5.3467075e-07
5.2844979e-07
5.266582e-07
5.1309052e-07
4.4673754e-07
6.7584143e-07
5.2814124e-07
5.9014756e-07
4.8306423e-07
7.3388332e-07
5.8608314e-07
5.4030341e-07
5.4213168e-07
4.8009121e-07
3.8964783e-07
5.9362292e-07
4.7663665e-07
8.3190305e-07
9.8874065e-07
1.8152686e-07
6.1275777e-07
7.2162872e-07
2.9374086e-06
1.9317441e-06
3.0878892e-06
5.653194e-07
5.3461407e-07
2.8814828e-06
6.4823265e-07
6.8323595e-07
7.585392e-07
8.4508906e-07
4.1091451e-07
3.5260497e-07
1.9481489e-06
3.0587337e-06
3.0948603e-06
5.8287008e-07
5.3442478e-07
8.1907094e-07
8.6690521e-07
1.0115775e-06
9.4413784e-07
6.5520311e-07
6.5519246e-07
5.5188383e-07
5.3092089e-07
5.965756e-07
7.4925142e-07
5.8169071e-07
7.4178417e-07
5.9640309e-07
7.5164268e-07
4.5032876e-07
4.4929825e-07
4.6884053e-07
4.9635605e-07
5.4159333e-07
5.3851397e-07
6.7724229e-07
4.4595574e-07
4.4702291e-07
4.3642157e-07
4.484291e-07
6.8424553e-07
7.025187e-07
7.4357985e-07
7.9470696e-07
8.6184782e-07
8.4237692e-07
8.0921045e-07
8.2953816e-07
1.0030044e-06
1.0595716e-06
1.0681781e-06
1.0204644e-06
8.4346127e-07
9.5166352e-07
8.8408907e-07
9.0913686e-07
9.7219307e-07
9.413663e-07
1.0124582e-06
1.0598228e-06
9.4110724e-07
9.9313395e-07
5.2014066e-07
5.4594998e-07
5.2283067e-07
5.4423697e-07
6.705243e-07
6.8470669e-07
6.8403735e-07
8.2238654e-07
8.1291626e-07
8.3457884e-07
1.067165e-06
1.0159004e-06
7.0047782e-07
8.8768189e-07
9.4729634e-07
9.8096427e-07
5.5830188e-07
5.4471775e-07
7.0676712e-07
5.8936469e-07
6.0249029e-07
6.9236154e-07
6.8036418e-07
2.5427086e-06
4.4088795e-07
6.0499734e-07
3.1747109e-06
5.8607044e-07
4.4532779e-07
5.1539487e-07
5.5327533e-07
6.242171e-07
6.4489688e-07
7.6633352e-07
5.3724566e-07
5.3447606e-07
5.2932342e-07
5.3342395e-07
4.8998786e-07
5.2785474e-07
5.2769958e-07
5.2683881e-07
5.5584736e-07
6.1390879e-07
6.7158956e-07
6.4446954e-07
5.3937739e-07
5.4892706e-07
5.4593911e-07
5.5464058e-07
5.4239077e-07
5.2200966e-07
5.1841168e-07
5.2335388e-07
6.1188659e-07
5.3221814e-07
5.2312167e-07
5.7507919e-07
5.1342939e-07
5.1734906e-07
5.1182986e-07
5.3779526e-07
5.4916225e-07
6.7824749e-07
6.6561118e-07
4.2309035e-07
4.3582354e-07
4.119238e-07
5.3914635e-07
5.3616513e-07
5.3538773e-07
5.3694069e-07
5.3186519e-07
5.3082813e-07
5.35869e-07
5.3220111e-07
5.3022843e-07
5.263713e-07
5.2602796e-07
5.2530338e-07
4.9977055e-07
5.7045632e-07
4.5974553e-07
5.894832e-07
5.454755e-07
6.6886257e-07
6.6767592e-07
4.739303e-07
6.735855e-07
5.6599307e-07
5.3960912e-07
5.4275785e-07
5.4637736e-07
5.4717257e-07
4.883935e-07
5.4239357e-07
3.688417e-07
5.468625e-07
4.7873301e-07
5.2853247e-07
6.5171557e-07
6.1945139e-07
3.0277677e-07
5.5723101e-07
4.8675314e-07
5.3134397e-07
6.6594151e-07
5.3263601e-07
6.6424778e-07
5.2831819e-07
5.3131913e-07
5.5116383e-07
5.7283917e-07
5.4054645e-07
5.3282234e-07
6.3064217e-07
6.5690686e-07
5.8700785e-07
6.6197253e-07
6.5989827e-07
6.0289428e-07
6.7932067e-07
8.2614934e-07
6.7351669e-07
6.7407396e-07
6.7452536e-07
6.6510639e-07
6.6197138e-07
6.6625326e-07
5.8823252e-07
6.0453244e-07
5.23834e-07
5.354581e-07
8.9117028e-07
1.0370871e-06
6.4215625e-07
6.3083821e-07
6.4618224e-07
6.5695856e-07
6.2872178e-07
5.1964054e-07
5.2717122e-07
5.2560367e-07
5.9561732e-07
4.4126852e-07
4.4101242e-07
5.9404767e-07
5.9550384e-07
4.3329603e-07
4.3930656e-07
5.2016718e-07
4.4570407e-07
5.1939931e-07
4.4908944e-07
5.3702002e-07
4.5680441e-07
5.6460799e-07
6.0889926e-07
5.5447783e-07
4.5993833e-07
5.4093364e-07
4.6112521e-07
5.7352144e-07
5.6521821e-07