/*--------------------------------*- C++ -*----------------------------------*\
  =========                 |
  \\      /  F ield         | OpenFOAM: The Open Source CFD Toolbox
   \\    /   O peration     | Website:  https://openfoam.org
    \\  /    A nd           | Version:  8
     \\/     M anipulation  |
\*---------------------------------------------------------------------------*/
/*   Windows 32 and 64 bit porting by blueCAPE: http://www.bluecape.com.pt   *\
|  Based on Windows porting (2.0.x v4) by Symscape: http://www.symscape.com   |
\*---------------------------------------------------------------------------*/
FoamFile
{
    version     2.0;
    format      ascii;
    class       scalarListList;
    location    "constant/vegetation";
    object      skyViewCoeff;
}
// * * * * * * * * * * * * * * * * * * * * * * * * * * * * * * * * * * * * * //


5
(

394
(
0
0
0
0
188
188
188
188
188
188
188
188
188
188
188
188
188
188
188
188
188
188
188
188
188
0
0
0
0
0
94
94
94
94
94
94
94
188
188
188
188
94
188
188
187.99982
187.99769
188
188
188
187.99793
187.99991
94
94
94
94
94
188
94
188
94
188
187.99982
188
187.99998
188
188
188
188
188
188
188
188
188
188
94
94
94
94
94
94
94
94.000791
94
94.001078
187.99999
94.00004
94
94
188
94
94
94
188
94
188
188
94.264356
187.94785
94.040198
94
94
94
94
94
94
94
188
188
187.99101
187.9061
94
94
94
188
188
188
188
94
94
94
94
188
188
187.95678
187.9991
187.99974
187.99971
94
94
94
94
94
94
94
94
94
94
94
94
94
187.99999
187.99989
188
188
187.99995
188
188
188
188
188
188
188
188
188
188
188
188
188
188
188
94
94
94
94
94
94
188
188
188
188
188
188
188
188
188
188
94
94
94
94
94
94
94
94
94
94
94
94
94
94
94
94
94
94
94
94
94
94
94
94
94
94
94.002392
94
94.003312
94.013858
94
94
94
94
94
94
94
94
94.000795
94
94
94
94
94
94
94
94
94
94
94
94
94
94
94
94
94
94
94
94
94
94
94
94
94
94
94.000795
94.001566
94
94
94.011894
94.000831
94.006023
94
94
94
94
94
94
94
94
94
94
94
94
94
94.113632
186.70926
94.010894
94.074707
94
94
94
94
94
94
94
94
94
94
94
94
94
94
94
94
94
94
94
94
94
188
94
94
94
94
94
94
94
94
94
94
188
188
94
94
94
94
94
94
94
94
188
188
188
187.9951
187.9991
187.99831
187.99964
94
94
94
94
94
94
94
94
94
94
94
94
94
94
94
94
94
94
94
94
94
94
94
94
94
94
187.99999
188
188
188
188
188
188
188
188
188
94
94
94
94
94
94
94
94
94
94
94
94
94
94
94
94
94
94
94
94
94
188
188
188
94
94
94
94
94
94
188
188
94
94
94
94
94
94
94
94
94
94
94
94
)


394
(
0
0
0
0
227
227
227
227
227
227
227
227
227
227
227
227
227
227
227
227
227
227
227
227
227
0
0
0
0
0
113.5
113.5
113.5
113.5
113.5
113.5
113.5
227
227
227
227
113.5
227
227
226.99978
226.99721
227
227
227
226.9975
226.99989
113.5
113.5
113.5
113.5
113.5
227
113.5
227
113.5
227
226.99979
227
226.99998
227
227
227
227
227
227
227
227
227
227
113.5
113.5
113.5
113.5
113.5
113.5
113.5
113.50095
113.5
113.5013
226.99999
113.50005
113.5
113.5
227
113.5
113.5
113.5
227
113.5
227
227
113.8192
226.93704
113.54854
113.5
113.5
113.5
113.5
113.5
113.5
113.5
227
227
226.98915
226.88662
113.5
113.5
113.5
227
227
227
227
113.5
113.5
113.5
113.5
227
227
226.94781
226.99892
226.99969
226.99965
113.5
113.5
113.5
113.5
113.5
113.5
113.5
113.5
113.5
113.5
113.5
113.5
113.5
226.99999
226.99986
227
227
226.99994
227
227
227
227
227
227
227
227
227
227
227
227
227
227
227
113.5
113.5
113.5
113.5
113.5
113.5
227
227
227
227
227
227
227
227
227
227
113.5
113.5
113.5
113.5
113.5
113.5
113.5
113.5
113.5
113.5
113.5
113.5
113.5
113.5
113.5
113.5
113.5
113.5
113.5
113.5
113.5
113.5
113.5
113.5
113.5
113.5
113.50289
113.5
113.504
113.51673
113.5
113.5
113.5
113.5
113.5
113.5
113.5
113.5
113.50096
113.5
113.5
113.5
113.5
113.5
113.5
113.5
113.5
113.5
113.5
113.5
113.5
113.5
113.5
113.5
113.5
113.5
113.5
113.5
113.5
113.5
113.5
113.5
113.5
113.5
113.5
113.50096
113.50189
113.5
113.5
113.51436
113.501
113.50727
113.5
113.5
113.5
113.5
113.5
113.5
113.5
113.5
113.5
113.5
113.5
113.5
113.5
113.6372
225.4415
113.51315
113.59021
113.5
113.5
113.5
113.5
113.5
113.5
113.5
113.5
113.5
113.5
113.5
113.5
113.5
113.5
113.5
113.5
113.5
113.5
113.5
113.5
113.5
227
113.5
113.5
113.5
113.5
113.5
113.5
113.5
113.5
113.5
113.5
227
227
113.5
113.5
113.5
113.5
113.5
113.5
113.5
113.5
227
227
227
226.99409
226.99892
226.99796
226.99956
113.5
113.5
113.5
113.5
113.5
113.5
113.5
113.5
113.5
113.5
113.5
113.5
113.5
113.5
113.5
113.5
113.5
113.5
113.5
113.5
113.5
113.5
113.5
113.5
113.5
113.5
226.99999
227
227
227
227
227
227
227
227
227
113.5
113.5
113.5
113.5
113.5
113.5
113.5
113.5
113.5
113.5
113.5
113.5
113.5
113.5
113.5
113.5
113.5
113.5
113.5
113.5
113.5
227
227
227
113.5
113.5
113.5
113.5
113.5
113.5
227
227
113.5
113.5
113.5
113.5
113.5
113.5
113.5
113.5
113.5
113.5
113.5
113.5
)


394
(
0
0
0
0
192
192
192
192
192
192
192
192
192
192
192
192
192
192
192
192
192
192
192
192
192
0
0
0
0
0
96
96
96
96
96
96
96
192
192
192
192
96
192
192
191.99982
191.99764
192
192
192
191.99788
191.9999
96
96
96
96
96
192
96
192
96
192
191.99982
192
191.99998
192
192
192
192
192
192
192
192
192
192
96
96
96
96
96
96
96
96.000808
96
96.001101
191.99999
96.000041
96
96
192
96
96
96
192
96
192
192
96.26998
191.94675
96.041053
96
96
96
96
96
96
96
192
192
191.99082
191.9041
96
96
96
192
192
192
192
96
96
96
96
192
192
191.95586
191.99909
191.99974
191.9997
96
96
96
96
96
96
96
96
96
96
96
96
96
191.99999
191.99988
192
192
191.99995
192
192
192
192
192
192
192
192
192
192
192
192
192
192
192
96
96
96
96
96
96
192
192
192
192
192
192
192
192
192
192
96
96
96
96
96
96
96
96
96
96
96
96
96
96
96
96
96
96
96
96
96
96
96
96
96
96
96.002443
96
96.003383
96.014152
96
96
96
96
96
96
96
96
96.000812
96
96
96
96
96
96
96
96
96
96
96
96
96
96
96
96
96
96
96
96
96
96
96
96
96
96
96.000812
96.001599
96
96
96.012147
96.000849
96.006151
96
96
96
96
96
96
96
96
96
96
96
96
96
96.11605
190.68179
96.011126
96.076297
96
96
96
96
96
96
96
96
96
96
96
96
96
96
96
96
96
96
96
96
96
192
96
96
96
96
96
96
96
96
96
96
192
192
96
96
96
96
96
96
96
96
192
192
192
191.995
191.99909
191.99827
191.99963
96
96
96
96
96
96
96
96
96
96
96
96
96
96
96
96
96
96
96
96
96
96
96
96
96
96
191.99999
192
192
192
192
192
192
192
192
192
96
96
96
96
96
96
96
96
96
96
96
96
96
96
96
96
96
96
96
96
96
192
192
192
96
96
96
96
96
96
192
192
96
96
96
96
96
96
96
96
96
96
96
96
)


394
(
0
0
0
0
149
149
149
149
149
149
149
149
149
149
149
149
149
149
149
149
149
149
149
149
149
0
0
0
0
0
74.5
74.5
74.5
74.5
74.5
74.5
74.5
149
149
149
149
74.5
149
149
148.99986
148.99817
149
149
149
148.99836
148.99993
74.5
74.5
74.5
74.5
74.5
149
74.5
149
74.5
149
148.99986
149
148.99999
149
149
149
149
149
149
149
149
149
149
74.5
74.5
74.5
74.5
74.5
74.5
74.5
74.500627
74.5
74.500855
148.99999
74.500032
74.5
74.5
149
74.5
74.5
74.5
149
74.5
149
149
74.709516
148.95867
74.531859
74.5
74.5
74.5
74.5
74.5
74.5
74.5
149
149
148.99288
148.92558
74.5
74.5
74.5
149
149
149
149
74.5
74.5
74.5
74.5
149
149
148.96574
148.99929
148.9998
148.99977
74.5
74.5
74.5
74.5
74.5
74.5
74.5
74.5
74.5
74.5
74.5
74.5
74.5
148.99999
148.99991
149
149
148.99996
149
149
149
149
149
149
149
149
149
149
149
149
149
149
149
74.5
74.5
74.5
74.5
74.5
74.5
149
149
149
149
149
149
149
149
149
149
74.5
74.5
74.5
74.5
74.5
74.5
74.5
74.5
74.5
74.5
74.5
74.5
74.5
74.5
74.5
74.5
74.5
74.5
74.5
74.5
74.5
74.5
74.5
74.5
74.5
74.5
74.501896
74.5
74.502625
74.510983
74.5
74.5
74.5
74.5
74.5
74.5
74.5
74.5
74.50063
74.5
74.5
74.5
74.5
74.5
74.5
74.5
74.5
74.5
74.5
74.5
74.5
74.5
74.5
74.5
74.5
74.5
74.5
74.5
74.5
74.5
74.5
74.5
74.5
74.5
74.5
74.50063
74.501241
74.5
74.5
74.509426
74.500659
74.504773
74.5
74.5
74.5
74.5
74.5
74.5
74.5
74.5
74.5
74.5
74.5
74.5
74.5
74.590059
147.97702
74.508634
74.55921
74.5
74.5
74.5
74.5
74.5
74.5
74.5
74.5
74.5
74.5
74.5
74.5
74.5
74.5
74.5
74.5
74.5
74.5
74.5
74.5
74.5
149
74.5
74.5
74.5
74.5
74.5
74.5
74.5
74.5
74.5
74.5
149
149
74.5
74.5
74.5
74.5
74.5
74.5
74.5
74.5
149
149
149
148.99612
148.99929
148.99866
148.99971
74.5
74.5
74.5
74.5
74.5
74.5
74.5
74.5
74.5
74.5
74.5
74.5
74.5
74.5
74.5
74.5
74.5
74.5
74.5
74.5
74.5
74.5
74.5
74.5
74.5
74.5
148.99999
149
149
149
149
149
149
149
149
149
74.5
74.5
74.5
74.5
74.5
74.5
74.5
74.5
74.5
74.5
74.5
74.5
74.5
74.5
74.5
74.5
74.5
74.5
74.5
74.5
74.5
149
149
149
74.5
74.5
74.5
74.5
74.5
74.5
149
149
74.5
74.5
74.5
74.5
74.5
74.5
74.5
74.5
74.5
74.5
74.5
74.5
)


394
(
0
0
0
0
107
107
107
107
107
107
107
107
107
107
107
107
107
107
107
107
107
107
107
107
107
0
0
0
0
0
53.5
53.5
53.5
53.5
53.5
53.5
53.5
107
107
107
107
53.5
107
107
106.9999
106.99868
107
107
107
106.99882
106.99995
53.5
53.5
53.5
53.5
53.5
107
53.5
107
53.5
107
106.9999
107
106.99999
107
107
107
107
107
107
107
107
107
107
53.5
53.5
53.5
53.5
53.5
53.5
53.5
53.50045
53.5
53.500614
106.99999
53.500023
53.5
53.5
107
53.5
53.5
53.5
107
53.5
107
107
53.650458
106.97032
53.522879
53.5
53.5
53.5
53.5
53.5
53.5
53.5
107
107
106.99488
106.94656
53.5
53.5
53.5
107
107
107
107
53.5
53.5
53.5
53.5
107
107
106.9754
106.99949
106.99985
106.99983
53.5
53.5
53.5
53.5
53.5
53.5
53.5
53.5
53.5
53.5
53.5
53.5
53.5
106.99999
106.99993
107
107
106.99997
107
107
107
107
107
107
107
107
107
107
107
107
107
107
107
53.5
53.5
53.5
53.5
53.5
53.5
107
107
107
107
107
107
107
107
107
107
53.5
53.5
53.5
53.5
53.5
53.5
53.5
53.5
53.5
53.5
53.5
53.5
53.5
53.5
53.5
53.5
53.5
53.5
53.5
53.5
53.5
53.5
53.5
53.5
53.5
53.5
53.501361
53.5
53.501885
53.507887
53.5
53.5
53.5
53.5
53.5
53.5
53.5
53.5
53.500452
53.5
53.5
53.5
53.5
53.5
53.5
53.5
53.5
53.5
53.5
53.5
53.5
53.5
53.5
53.5
53.5
53.5
53.5
53.5
53.5
53.5
53.5
53.5
53.5
53.5
53.5
53.500452
53.500891
53.5
53.5
53.506769
53.500473
53.503428
53.5
53.5
53.5
53.5
53.5
53.5
53.5
53.5
53.5
53.5
53.5
53.5
53.5
53.564674
106.26537
53.5062
53.54252
53.5
53.5
53.5
53.5
53.5
53.5
53.5
53.5
53.5
53.5
53.5
53.5
53.5
53.5
53.5
53.5
53.5
53.5
53.5
53.5
53.5
107
53.5
53.5
53.5
53.5
53.5
53.5
53.5
53.5
53.5
53.5
107
107
53.5
53.5
53.5
53.5
53.5
53.5
53.5
53.5
107
107
107
106.99721
106.99949
106.99904
106.99979
53.5
53.5
53.5
53.5
53.5
53.5
53.5
53.5
53.5
53.5
53.5
53.5
53.5
53.5
53.5
53.5
53.5
53.5
53.5
53.5
53.5
53.5
53.5
53.5
53.5
53.5
107
107
107
107
107
107
107
107
107
107
53.5
53.5
53.5
53.5
53.5
53.5
53.5
53.5
53.5
53.5
53.5
53.5
53.5
53.5
53.5
53.5
53.5
53.5
53.5
53.5
53.5
107
107
107
53.5
53.5
53.5
53.5
53.5
53.5
107
107
53.5
53.5
53.5
53.5
53.5
53.5
53.5
53.5
53.5
53.5
53.5
53.5
)

)


// ************************************************************************* //
