/*--------------------------------*- C++ -*----------------------------------*\
  =========                 |
  \\      /  F ield         | OpenFOAM: The Open Source CFD Toolbox
   \\    /   O peration     | Website:  https://openfoam.org
    \\  /    A nd           | Version:  8
     \\/     M anipulation  |
\*---------------------------------------------------------------------------*/
/*   Windows 32 and 64 bit porting by blueCAPE: http://www.bluecape.com.pt   *\
|  Based on Windows porting (2.0.x v4) by Symscape: http://www.symscape.com   |
\*---------------------------------------------------------------------------*/
FoamFile
{
    version     2.0;
    format      ascii;
    class       scalarListList;
    location    "constant/vegetation";
    object      skyViewCoeff;
}
// * * * * * * * * * * * * * * * * * * * * * * * * * * * * * * * * * * * * * //


5
(

648
(
302
302
302
302
302
302
302
302
302
302
302
302
302
302
302
302
302
302
302
302
302
302
302
302
302
302
302
302
302
302
302
302
302
302
302
302
302
302
302
302
302
302
302
302
302
302
302
302
302
302
302
302
302
302
302
302
302
302
302
302
302
151
151
151
151
151
151
151
151
151
151
151
151
151
151
151
151
151
151
151
151
151
151
151
151
151
151
151
151
151
151
151
151
151
151
151
151
151
151
151
151
151
151
151
151
151
151
151
151
151
151
151
151
151
151
151
151
151
151
151
151
151
151
151
151
151
151
151
151
151
151
151
151
151
151
151
151
151
151
151
151
151
151
151
151
151
151
151
151
151
151
151
151
151
151
151
151
151
151
151
151
151
151
151
151
151
151
151
151
151
151
151
151
151
151
151
151
151
151
151
151
151
151
151
151
151
151
151
151
151
151
151
151
151
151
151
151
151
151
151
151
151
151
151
151
151
151
151
151
151
151
151
151
151
151
151
151
151
151
151
151
151
151
151
151
151
151
151
151
151
151
151
151
151
151
151
151
151
151
151
151
151
151
151
151
151
151
151
151
151
151
151
151
151
151
151
151
151
151
151
151
151
151
151
151
151
151
151
151
151
151
151
151
151
151
151
151
151
151
151
151
151
151
151
151
151
151
151
151
151
151
151
151
151
151
151
151
151
151
151
302
302
302
151
151
151
151
302
301.99999
151
151
151
151
151
151
151
151
302
302
151
151
151
151
151
151
151
151
151
151
151
151
151
151
151
151
151
151
151
151
151
151
151
151
151
151
151
151
151
151
151
151
151
151
151
151
301.99999
301.99999
151
301.99999
301.99999
151
301.99999
151
302
302
151
151
301.99999
301.99999
151
301.99999
301.99999
151
151
301.99999
301.99999
151
302
302
151
151
151
301.99999
302
301.99999
302
302
302
151
151
151
151
151
151
302
301.99999
301.99999
151
151
302
301.99999
301.99999
301.99999
302
301.99999
302
302
302
151
151
151
151
151
151
151
302
301.99999
301.99999
151
302
302
151
302
301.99999
301.99999
151
151
151
151
151
151
151
151
151
151
151
151
151
151
151
151
151
151
151
151
151
151
151
151
151
151
151
302
301.99999
301.99999
151
151
151
151
151
151
151
151
151
151
302
151
151
151
151
151
151
151
151
151
151
151
151
151
151
151
151
151
151
151
151
151
151
151
151
151
151
151
151
151
151
151
151
151
151
151
151
151
151
151
151
151
151
151
151
151
151
151
151
151
151
151
151
151
151
151
151
151
151
151
151
151
151
151
151
151
151
151
151
151
151
151
302
302
302
151
151
151
301.99999
151
301.99999
301.99999
151
301.99999
151
151
151
151
151
151
151
151
151
151
151
151
151
151
151
151
151
151
151
151
301.99999
151
301.99999
301.99999
151
151
151
151
151
151
151
151
151
151
151
301.99999
302
301.99999
302
301.99999
301.99999
151
302
302
302
302
302
151
151
301.99999
302
301.99999
151
302
301.99999
151
151
301.99999
301.99999
301.99999
151
151
151
151
151
151
151
151
151
151
151
185.78264
193.15927
237.17264
192.90915
165.64781
188.96246
198.80356
208.16324
218.39437
232.48145
167.45061
156.67099
178.0804
151.66575
177.74772
252.14314
213.81025
299.20137
154.25915
172.15562
277.59073
185.26214
188.7598
173.47394
156.87443
217.85865
207.80232
163.40034
)


648
(
383
383
383
383
383
383
383
383
383
383
383
383
383
383
383
383
383
383
383
383
383
383
383
383
383
383
383
383
383
383
383
383
383
383
383
383
383
383
383
383
383
383
383
383
383
383
383
383
383
383
383
383
383
383
383
383
383
382.99999
383
383
383
191.5
191.5
191.5
191.5
191.5
191.5
191.5
191.5
191.5
191.5
191.5
191.5
191.5
191.5
191.5
191.5
191.5
191.5
191.5
191.5
191.5
191.5
191.5
191.5
191.5
191.5
191.5
191.5
191.5
191.5
191.5
191.5
191.5
191.5
191.5
191.5
191.5
191.5
191.5
191.5
191.5
191.5
191.5
191.5
191.5
191.5
191.5
191.5
191.5
191.5
191.5
191.5
191.5
191.5
191.5
191.5
191.5
191.5
191.5
191.5
191.5
191.5
191.5
191.5
191.5
191.5
191.5
191.5
191.5
191.5
191.5
191.5
191.5
191.5
191.5
191.5
191.5
191.5
191.5
191.5
191.5
191.5
191.5
191.5
191.5
191.5
191.5
191.5
191.5
191.5
191.5
191.5
191.5
191.5
191.5
191.5
191.5
191.5
191.5
191.5
191.5
191.5
191.5
191.5
191.5
191.5
191.5
191.5
191.5
191.5
191.5
191.5
191.5
191.5
191.5
191.5
191.5
191.5
191.5
191.5
191.5
191.5
191.5
191.5
191.5
191.5
191.5
191.5
191.5
191.5
191.5
191.5
191.5
191.5
191.5
191.5
191.5
191.5
191.5
191.5
191.5
191.5
191.5
191.5
191.5
191.5
191.5
191.5
191.5
191.5
191.5
191.5
191.5
191.5
191.5
191.5
191.5
191.5
191.5
191.5
191.5
191.5
191.5
191.5
191.5
191.5
191.5
191.5
191.5
191.5
191.5
191.5
191.5
191.5
191.5
191.5
191.5
191.5
191.5
191.5
191.5
191.5
191.5
191.5
191.5
191.5
191.5
191.5
191.5
191.5
191.5
191.5
191.5
191.5
191.5
191.5
191.5
191.5
191.5
191.5
191.5
191.5
191.5
191.5
191.5
191.5
191.5
191.5
191.5
191.5
191.5
191.5
191.5
191.5
191.5
191.5
191.5
191.5
191.5
191.5
191.5
191.5
191.5
191.5
191.5
191.5
191.5
191.5
191.5
191.5
191.5
191.5
191.5
191.5
191.5
191.5
191.5
191.5
191.5
382.99999
383
382.99999
191.5
191.5
191.5
191.5
382.99999
382.99999
191.5
191.5
191.5
191.5
191.5
191.5
191.5
191.5
382.99999
383
191.5
191.5
191.5
191.5
191.5
191.5
191.5
191.5
191.5
191.5
191.5
191.5
191.5
191.5
191.5
191.5
191.5
191.5
191.5
191.5
191.5
191.5
191.5
191.5
191.5
191.5
191.5
191.5
191.5
191.5
191.5
191.5
191.5
191.5
191.5
191.5
382.99999
382.99999
191.5
382.99999
382.99999
191.5
382.99999
191.5
382.99999
382.99999
191.5
191.5
382.99999
382.99999
191.5
382.99999
382.99999
191.5
191.5
382.99999
382.99999
191.5
383
383
191.5
191.5
191.5
382.99999
382.99999
382.99999
383
383
383
191.5
191.5
191.5
191.5
191.5
191.5
382.99999
382.99999
382.99999
191.5
191.5
382.99999
382.99999
382.99999
382.99999
382.99999
382.99999
383
383
383
191.5
191.5
191.5
191.5
191.5
191.5
191.5
382.99999
382.99999
382.99999
191.5
383
383
191.5
382.99999
382.99999
382.99999
191.5
191.5
191.5
191.5
191.5
191.5
191.5
191.5
191.5
191.5
191.5
191.5
191.5
191.5
191.5
191.5
191.5
191.5
191.5
191.5
191.5
191.5
191.5
191.5
191.5
191.5
191.5
382.99999
382.99999
382.99999
191.5
191.5
191.5
191.5
191.5
191.5
191.5
191.5
191.5
191.5
382.99999
191.5
191.5
191.5
191.5
191.5
191.5
191.5
191.5
191.5
191.5
191.5
191.5
191.5
191.5
191.5
191.5
191.5
191.5
191.5
191.5
191.5
191.5
191.5
191.5
191.5
191.5
191.5
191.5
191.5
191.5
191.5
191.5
191.5
191.5
191.5
191.5
191.5
191.5
191.5
191.5
191.5
191.5
191.5
191.5
191.5
191.5
191.5
191.5
191.5
191.5
191.5
191.5
191.5
191.5
191.5
191.5
191.5
191.5
191.5
191.5
191.5
191.5
191.5
191.5
191.5
191.5
191.5
191.5
191.5
191.5
191.5
382.99999
382.99999
383
191.5
191.5
191.5
382.99999
191.5
382.99999
382.99999
191.5
382.99999
191.5
191.5
191.5
191.5
191.5
191.5
191.5
191.5
191.5
191.5
191.5
191.5
191.5
191.5
191.5
191.5
191.5
191.5
191.5
191.5
382.99999
191.5
382.99999
382.99999
191.5
191.5
191.5
191.5
191.5
191.5
191.5
191.5
191.5
191.5
191.5
382.99999
382.99999
382.99999
382.99999
382.99999
382.99999
191.5
383
383
383
383
383
191.5
191.5
382.99999
382.99999
382.99999
191.5
382.99999
382.99999
191.5
191.5
382.99999
382.99999
382.99999
191.5
191.5
191.5
191.5
191.5
191.5
191.5
191.5
191.5
191.5
191.5
235.61176
244.96689
300.78517
244.64969
210.07653
239.64445
252.12504
263.9951
276.97034
294.83574
212.36286
198.69201
225.84368
192.34431
225.42177
319.77093
271.1567
379.45074
195.63329
218.32981
352.04387
234.95166
239.38743
220.00171
198.95003
276.29094
263.53738
207.22626
)


648
(
334
334
334
334
334
334
334
334
334
334
334
334
334
334
334
334
334
334
334
334
334
334
334
334
334
334
334
334
334
334
334
334
334
334
334
334
334
334
334
334
334
334
334
334
334
334
334
334
334
334
334
334
334
334
334
334
334
334
334
334
334
167
167
167
167
167
167
167
167
167
167
167
167
167
167
167
167
167
167
167
167
167
167
167
167
167
167
167
167
167
167
167
167
167
167
167
167
167
167
167
167
167
167
167
167
167
167
167
167
167
167
167
167
167
167
167
167
167
167
167
167
167
167
167
167
167
167
167
167
167
167
167
167
167
167
167
167
167
167
167
167
167
167
167
167
167
167
167
167
167
167
167
167
167
167
167
167
167
167
167
167
167
167
167
167
167
167
167
167
167
167
167
167
167
167
167
167
167
167
167
167
167
167
167
167
167
167
167
167
167
167
167
167
167
167
167
167
167
167
167
167
167
167
167
167
167
167
167
167
167
167
167
167
167
167
167
167
167
167
167
167
167
167
167
167
167
167
167
167
167
167
167
167
167
167
167
167
167
167
167
167
167
167
167
167
167
167
167
167
167
167
167
167
167
167
167
167
167
167
167
167
167
167
167
167
167
167
167
167
167
167
167
167
167
167
167
167
167
167
167
167
167
167
167
167
167
167
167
167
167
167
167
167
167
167
167
167
167
167
167
333.99999
334
333.99999
167
167
167
167
333.99999
333.99999
167
167
167
167
167
167
167
167
333.99999
334
167
167
167
167
167
167
167
167
167
167
167
167
167
167
167
167
167
167
167
167
167
167
167
167
167
167
167
167
167
167
167
167
167
167
167
167
333.99999
333.99999
167
333.99999
333.99999
167
333.99999
167
333.99999
333.99999
167
167
333.99999
333.99999
167
333.99999
333.99999
167
167
333.99999
333.99999
167
334
334
167
167
167
333.99999
333.99999
333.99999
334
334
334
167
167
167
167
167
167
333.99999
333.99999
333.99999
167
167
333.99999
333.99999
333.99999
333.99999
333.99999
333.99999
334
334
334
167
167
167
167
167
167
167
333.99999
333.99999
333.99999
167
334
334
167
333.99999
333.99999
333.99999
167
167
167
167
167
167
167
167
167
167
167
167
167
167
167
167
167
167
167
167
167
167
167
167
167
167
167
333.99999
333.99999
333.99999
167
167
167
167
167
167
167
167
167
167
333.99999
167
167
167
167
167
167
167
167
167
167
167
167
167
167
167
167
167
167
167
167
167
167
167
167
167
167
167
167
167
167
167
167
167
167
167
167
167
167
167
167
167
167
167
167
167
167
167
167
167
167
167
167
167
167
167
167
167
167
167
167
167
167
167
167
167
167
167
167
167
167
167
333.99999
333.99999
334
167
167
167
333.99999
167
333.99999
333.99999
167
333.99999
167
167
167
167
167
167
167
167
167
167
167
167
167
167
167
167
167
167
167
167
333.99999
167
333.99999
333.99999
167
167
167
167
167
167
167
167
167
167
167
333.99999
333.99999
333.99999
333.99999
333.99999
333.99999
167
334
334
334
334
334
167
167
333.99999
333.99999
333.99999
167
333.99999
333.99999
167
167
333.99999
333.99999
333.99999
167
167
167
167
167
167
167
167
167
167
167
205.46822
213.62647
262.30351
213.34986
183.1999
208.98498
219.86884
230.22027
241.53549
257.11524
185.19372
173.27189
196.94984
167.73629
196.58191
278.86029
236.46564
330.90482
170.60449
190.39728
307.00432
204.89257
208.76084
191.85528
173.49689
240.94301
229.82111
180.71428
)


648
(
273
273
273
273
273
273
273
273
273
273
273
273
273
273
273
273
273
273
273
273
273
273
273
273
273
273
273
273
273
273
273
273
273
273
273
273
273
273
273
273
273
273
273
273
273
273
273
273
273
273
273
273
273
273
273
273
273
273
273
273
273
136.5
136.5
136.5
136.5
136.5
136.5
136.5
136.5
136.5
136.5
136.5
136.5
136.5
136.5
136.5
136.5
136.5
136.5
136.5
136.5
136.5
136.5
136.5
136.5
136.5
136.5
136.5
136.5
136.5
136.5
136.5
136.5
136.5
136.5
136.5
136.5
136.5
136.5
136.5
136.5
136.5
136.5
136.5
136.5
136.5
136.5
136.5
136.5
136.5
136.5
136.5
136.5
136.5
136.5
136.5
136.5
136.5
136.5
136.5
136.5
136.5
136.5
136.5
136.5
136.5
136.5
136.5
136.5
136.5
136.5
136.5
136.5
136.5
136.5
136.5
136.5
136.5
136.5
136.5
136.5
136.5
136.5
136.5
136.5
136.5
136.5
136.5
136.5
136.5
136.5
136.5
136.5
136.5
136.5
136.5
136.5
136.5
136.5
136.5
136.5
136.5
136.5
136.5
136.5
136.5
136.5
136.5
136.5
136.5
136.5
136.5
136.5
136.5
136.5
136.5
136.5
136.5
136.5
136.5
136.5
136.5
136.5
136.5
136.5
136.5
136.5
136.5
136.5
136.5
136.5
136.5
136.5
136.5
136.5
136.5
136.5
136.5
136.5
136.5
136.5
136.5
136.5
136.5
136.5
136.5
136.5
136.5
136.5
136.5
136.5
136.5
136.5
136.5
136.5
136.5
136.5
136.5
136.5
136.5
136.5
136.5
136.5
136.5
136.5
136.5
136.5
136.5
136.5
136.5
136.5
136.5
136.5
136.5
136.5
136.5
136.5
136.5
136.5
136.5
136.5
136.5
136.5
136.5
136.5
136.5
136.5
136.5
136.5
136.5
136.5
136.5
136.5
136.5
136.5
136.5
136.5
136.5
136.5
136.5
136.5
136.5
136.5
136.5
136.5
136.5
136.5
136.5
136.5
136.5
136.5
136.5
136.5
136.5
136.5
136.5
136.5
136.5
136.5
136.5
136.5
136.5
136.5
136.5
136.5
136.5
136.5
136.5
136.5
136.5
136.5
136.5
136.5
136.5
136.5
136.5
136.5
136.5
136.5
136.5
273
273
273
136.5
136.5
136.5
136.5
273
273
136.5
136.5
136.5
136.5
136.5
136.5
136.5
136.5
273
273
136.5
136.5
136.5
136.5
136.5
136.5
136.5
136.5
136.5
136.5
136.5
136.5
136.5
136.5
136.5
136.5
136.5
136.5
136.5
136.5
136.5
136.5
136.5
136.5
136.5
136.5
136.5
136.5
136.5
136.5
136.5
136.5
136.5
136.5
136.5
136.5
273
273
136.5
273
273
136.5
273
136.5
273
273
136.5
136.5
273
273
136.5
273
273
136.5
136.5
273
273
136.5
273
273
136.5
136.5
136.5
273
273
273
273
273
273
136.5
136.5
136.5
136.5
136.5
136.5
273
273
273
136.5
136.5
273
273
273
273
273
273
273
273
273
136.5
136.5
136.5
136.5
136.5
136.5
136.5
273
273
273
136.5
273
273
136.5
273
273
273
136.5
136.5
136.5
136.5
136.5
136.5
136.5
136.5
136.5
136.5
136.5
136.5
136.5
136.5
136.5
136.5
136.5
136.5
136.5
136.5
136.5
136.5
136.5
136.5
136.5
136.5
136.5
273
273
273
136.5
136.5
136.5
136.5
136.5
136.5
136.5
136.5
136.5
136.5
273
136.5
136.5
136.5
136.5
136.5
136.5
136.5
136.5
136.5
136.5
136.5
136.5
136.5
136.5
136.5
136.5
136.5
136.5
136.5
136.5
136.5
136.5
136.5
136.5
136.5
136.5
136.5
136.5
136.5
136.5
136.5
136.5
136.5
136.5
136.5
136.5
136.5
136.5
136.5
136.5
136.5
136.5
136.5
136.5
136.5
136.5
136.5
136.5
136.5
136.5
136.5
136.5
136.5
136.5
136.5
136.5
136.5
136.5
136.5
136.5
136.5
136.5
136.5
136.5
136.5
136.5
136.5
136.5
136.5
136.5
136.5
273
273
273
136.5
136.5
136.5
273
136.5
273
273
136.5
273
136.5
136.5
136.5
136.5
136.5
136.5
136.5
136.5
136.5
136.5
136.5
136.5
136.5
136.5
136.5
136.5
136.5
136.5
136.5
136.5
273
136.5
273
273
136.5
136.5
136.5
136.5
136.5
136.5
136.5
136.5
136.5
136.5
136.5
273
273
273
273
273
273
136.5
273
273
273
273
273
136.5
136.5
273
273
273
136.5
273
273
136.5
136.5
273
273
273
136.5
136.5
136.5
136.5
136.5
136.5
136.5
136.5
136.5
136.5
136.5
167.94259
174.61086
214.39778
174.38476
149.74123
170.81706
179.71315
188.17405
197.42272
210.15707
151.37091
141.62642
160.97996
137.10182
160.67923
227.93072
193.2788
270.47011
139.44619
155.62412
250.93467
167.47207
170.63386
156.81584
141.81033
196.93845
187.8478
147.70958
)


648
(
230
230
230
230
230
230
230
230
230
230
230
230
230
230
230
230
230
230
230
230
230
230
230
230
230
230
230
230
230
230
230
230
230
230
230
230
230
230
230
230
230
230
230
230
230
230
230
230
230
230
230
230
230
230
230
230
230
230
230
230
230
115
115
115
115
115
115
115
115
115
115
115
115
115
115
115
115
115
115
115
115
115
115
115
115
115
115
115
115
115
115
115
115
115
115
115
115
115
115
115
115
115
115
115
115
115
115
115
115
115
115
115
115
115
115
115
115
115
115
115
115
115
115
115
115
115
115
115
115
115
115
115
115
115
115
115
115
115
115
115
115
115
115
115
115
115
115
115
115
115
115
115
115
115
115
115
115
115
115
115
115
115
115
115
115
115
115
115
115
115
115
115
115
115
115
115
115
115
115
115
115
115
115
115
115
115
115
115
115
115
115
115
115
115
115
115
115
115
115
115
115
115
115
115
115
115
115
115
115
115
115
115
115
115
115
115
115
115
115
115
115
115
115
115
115
115
115
115
115
115
115
115
115
115
115
115
115
115
115
115
115
115
115
115
115
115
115
115
115
115
115
115
115
115
115
115
115
115
115
115
115
115
115
115
115
115
115
115
115
115
115
115
115
115
115
115
115
115
115
115
115
115
115
115
115
115
115
115
115
115
115
115
115
115
115
115
115
115
115
115
230
230
230
115
115
115
115
230
230
115
115
115
115
115
115
115
115
230
230
115
115
115
115
115
115
115
115
115
115
115
115
115
115
115
115
115
115
115
115
115
115
115
115
115
115
115
115
115
115
115
115
115
115
115
115
230
230
115
230
230
115
230
115
230
230
115
115
230
230
115
230
230
115
115
230
230
115
230
230
115
115
115
230
230
230
230
230
230
115
115
115
115
115
115
230
230
230
115
115
230
230
230
230
230
230
230
230
230
115
115
115
115
115
115
115
230
230
230
115
230
230
115
230
230
230
115
115
115
115
115
115
115
115
115
115
115
115
115
115
115
115
115
115
115
115
115
115
115
115
115
115
115
230
230
230
115
115
115
115
115
115
115
115
115
115
230
115
115
115
115
115
115
115
115
115
115
115
115
115
115
115
115
115
115
115
115
115
115
115
115
115
115
115
115
115
115
115
115
115
115
115
115
115
115
115
115
115
115
115
115
115
115
115
115
115
115
115
115
115
115
115
115
115
115
115
115
115
115
115
115
115
115
115
115
115
115
115
230
230
230
115
115
115
230
115
230
230
115
230
115
115
115
115
115
115
115
115
115
115
115
115
115
115
115
115
115
115
115
115
230
115
230
230
115
115
115
115
115
115
115
115
115
115
115
230
230
230
230
230
230
115
230
230
230
230
230
115
115
230
230
230
115
230
230
115
115
230
230
230
115
115
115
115
115
115
115
115
115
115
115
141.49009
147.10805
180.62817
146.91757
126.15562
143.91181
151.40668
158.53491
166.32683
177.05541
127.52861
119.31896
135.62414
115.50703
135.37078
192.02954
162.83562
227.86859
117.48214
131.1119
211.41016
141.09368
143.75747
132.11591
119.47391
165.91884
158.26005
124.44397
)

)


// ************************************************************************* //
