/*--------------------------------*- C++ -*----------------------------------*\
  =========                 |
  \\      /  F ield         | OpenFOAM: The Open Source CFD Toolbox
   \\    /   O peration     | Website:  https://openfoam.org
    \\  /    A nd           | Version:  8
     \\/     M anipulation  |
\*---------------------------------------------------------------------------*/
/*   Windows 32 and 64 bit porting by blueCAPE: http://www.bluecape.com.pt   *\
|  Based on Windows porting (2.0.x v4) by Symscape: http://www.symscape.com   |
\*---------------------------------------------------------------------------*/
FoamFile
{
    version     2.0;
    format      ascii;
    class       scalarListList;
    location    "constant/vegetation";
    object      sunViewCoeff;
}
// * * * * * * * * * * * * * * * * * * * * * * * * * * * * * * * * * * * * * //


5
(

648
(
501.05251
501.05251
501.05251
501.05251
501.05251
376.65122
501.05251
317.96295
501.05251
501.05251
492.77954
501.05251
337.87603
501.05251
341.48493
374.69977
501.05251
501.05251
501.05251
501.05251
501.05251
151.44504
501.05251
501.05251
501.05251
501.05251
501.05251
265.31678
501.05251
501.05251
501.05251
501.05251
501.05251
501.05251
501.05251
501.05251
373.77446
501.05251
501.05251
501.05251
501.05251
501.05251
501.05251
501.05251
501.05251
501.05251
501.05251
501.05251
501.05251
501.05251
501.05251
501.05251
501.05251
501.05251
501.05251
501.05251
501.05251
501.05251
501.05251
501.05251
501.05251
87.179411
87.179411
87.179411
87.179411
87.179411
87.179411
87.179411
87.179411
87.179411
87.179411
87.179411
87.179411
87.179411
87.179411
87.179411
87.179411
87.179411
87.179411
87.179411
87.179411
87.179411
87.179411
87.179411
87.179411
87.179411
87.179411
87.179411
87.179411
87.179411
87.179411
87.179411
87.179411
87.179411
87.179411
87.179411
87.179411
87.179411
87.179411
87.179411
87.179411
87.179411
87.179411
87.179411
87.179411
87.179411
87.179411
87.179411
87.179411
87.179411
87.179411
87.179411
87.179411
87.179411
87.179411
87.179411
87.179411
87.179411
87.179411
87.179411
87.179411
87.179411
87.179411
87.179411
87.179411
87.179411
87.179411
87.179411
87.179411
87.179411
87.179411
87.179411
87.179411
87.179411
87.179411
87.179411
87.179411
87.179411
87.179411
87.179411
87.179411
87.179411
87.179411
87.179411
87.179411
87.179411
87.179411
87.179411
87.179411
87.179411
87.179411
87.179411
87.179411
87.179411
87.179411
87.179411
87.179411
87.179411
87.179411
87.179411
87.179411
87.179411
87.179411
87.179411
87.179411
87.179411
87.179411
87.179411
87.179411
87.179411
87.179411
87.179411
87.179411
87.179411
87.179411
87.179411
87.179411
87.179411
87.179411
87.179411
87.179411
87.179411
87.179411
87.179411
87.179411
87.179411
87.179411
87.179411
87.179411
87.179411
87.179411
87.179411
87.179411
87.179411
87.179411
87.179411
87.179411
87.179411
87.179411
87.179411
87.179411
87.179411
87.179411
87.179411
87.179411
87.179411
87.179411
87.179411
87.179411
87.179411
87.179411
87.179411
87.179411
87.179411
87.179411
87.179411
87.179411
87.179411
87.179411
87.179411
87.179411
87.179411
87.179411
87.179411
87.179411
87.179411
87.179411
87.179411
87.179411
87.179411
87.179411
87.179411
87.179411
87.179411
87.179411
87.179411
87.179411
87.179411
87.179411
87.179411
87.179411
87.179411
87.179411
87.179411
87.179411
87.179411
87.179411
87.179411
87.179411
87.179411
87.179411
87.179411
87.179411
87.179411
87.179411
87.179411
87.179411
87.179411
87.179411
87.179411
87.179411
87.179411
87.179411
87.179411
87.179411
87.179411
87.179411
87.179411
87.179411
87.179411
87.179411
87.179411
87.179411
87.179411
87.179411
87.179411
87.179411
87.179411
87.179411
87.179411
87.179411
87.179411
87.179411
87.179411
87.179411
87.179411
87.179411
87.179411
87.179411
87.179411
87.179411
87.179411
87.179411
87.179411
87.179411
87.179411
87.179411
87.179411
87.179411
87.179411
501.05251
501.05251
501.05251
87.179411
87.179411
87.179411
87.179411
501.05251
501.05251
87.179411
87.179411
87.179411
87.179411
87.179411
87.179411
87.179411
87.179411
501.05251
501.05251
87.179411
87.179411
87.179411
87.179411
87.179411
87.179411
87.179411
87.179411
87.179411
87.179411
87.179411
87.179411
87.179411
87.179411
87.179411
87.179411
87.179411
87.179411
87.179411
87.179411
87.179411
87.179411
87.179411
87.179411
87.179411
87.179411
87.179411
87.179411
87.179411
87.179411
87.179411
87.179411
87.179411
87.179411
87.179411
87.179411
501.05251
501.05251
87.179411
501.05251
501.05251
87.179411
501.05251
87.179411
501.05251
501.05251
87.179411
87.179411
501.05251
501.05251
87.179411
501.05251
501.05251
87.179411
87.179411
501.05251
501.05251
87.179411
501.05251
501.05251
87.179411
87.179411
87.179411
501.05251
501.05251
501.05251
501.05251
501.05251
501.05251
87.179411
87.179411
87.179411
87.179411
87.179411
87.179411
501.05251
501.05251
501.05251
87.179411
87.179411
501.05251
501.05251
501.05251
501.05251
501.05251
501.05251
501.05251
501.05251
501.05251
87.179411
87.179411
87.179411
87.179411
87.179411
87.179411
87.179411
501.05251
501.05251
501.05251
87.179411
501.05251
501.05251
87.179411
501.05251
501.05251
501.05251
87.179411
87.179411
87.179411
87.179411
87.179411
87.179411
87.179411
87.179411
87.179411
87.179411
87.179411
87.179411
87.179411
87.179411
87.179411
87.179411
87.179411
87.179411
87.179411
87.179411
87.179411
87.179411
87.179411
87.179411
87.179411
87.179411
87.179411
501.05251
501.05251
501.05251
87.179411
87.179411
87.179411
87.179411
87.179411
87.179411
87.179411
87.179411
87.179411
87.179411
501.05251
87.179411
87.179411
87.179411
87.179411
87.179411
87.179411
87.179411
87.179411
87.179411
87.179411
87.179411
87.179411
87.179411
87.179411
87.179411
87.179411
87.179411
87.179411
87.179411
87.179411
87.179411
87.179411
87.179411
87.179411
87.179411
87.179411
87.179411
87.179411
87.179411
87.179411
87.179411
87.179411
87.179411
87.179411
87.179411
87.179411
87.179411
87.179411
87.179411
87.179411
87.179411
87.179411
87.179411
87.179411
87.179411
87.179411
87.179411
87.179411
87.179411
87.179411
87.179411
87.179411
87.179411
87.179411
87.179411
87.179411
87.179411
87.179411
87.179411
87.179411
87.179411
87.179411
87.179411
87.179411
87.179411
87.179411
87.179411
87.179411
87.179411
87.179411
87.179411
501.05251
501.05251
501.05251
87.179411
87.179411
87.179411
501.05251
87.179411
501.05251
501.05251
87.179411
501.05251
87.179411
87.179411
87.179411
87.179411
87.179411
87.179411
87.179411
87.179411
87.179411
87.179411
87.179411
87.179411
87.179411
87.179411
87.179411
87.179411
87.179411
87.179411
87.179411
87.179411
501.05251
87.179411
501.05251
501.05251
87.179411
87.179411
87.179411
87.179411
87.179411
87.179411
87.179411
87.179411
87.179411
87.179411
87.179411
501.05251
501.05251
501.05251
501.05251
501.05251
501.05251
87.179411
501.05251
501.05251
501.05251
501.05251
501.05251
87.179411
87.179411
501.05251
501.05251
501.05251
87.179411
501.05251
501.05251
87.179411
87.179411
501.05251
501.05251
501.05251
87.179411
87.179411
87.179411
87.179411
87.179411
87.179411
87.179411
87.179411
87.179411
87.179411
87.179411
0
107.07938
484.03234
196.36839
13.566431
241.47473
30.325298
0
86.925045
338.70743
3.5279533
8.7670477
189.58404
23.094227
139.34552
494.99127
243.39268
0
134.73788
2.006744
0
279.77141
0
171.08638
26.650384
49.075274
0
183.01661
)


648
(
284.54856
284.54856
284.54856
284.54856
284.54856
263.10882
284.54856
257.1028
284.54856
284.54856
284.54856
284.54856
175.7007
284.54856
246.96225
258.7329
284.54856
284.54856
284.54856
284.54856
284.54856
68.141466
234.74938
284.54856
284.54856
284.54856
284.54856
120.20259
284.54856
284.54856
284.54856
284.54856
284.54856
284.54856
284.54856
284.54856
60.126587
244.97888
284.54856
284.54856
284.54856
186.00252
246.42057
284.54856
284.54856
284.54856
284.54856
284.54856
284.54856
284.54856
284.54856
284.54856
284.54856
284.54856
284.54856
284.54856
284.54856
284.54856
284.54856
284.54856
284.54856
50.690264
50.690264
50.690264
50.690264
50.690264
50.690264
50.690264
50.690264
50.690264
50.690264
50.690264
50.690264
50.690264
50.690264
50.690264
50.690264
50.690264
50.690264
50.690264
50.690264
50.690264
50.690264
50.690264
50.690264
50.690264
50.690264
50.690264
50.690264
50.690264
50.690264
50.690264
50.690264
50.690264
50.690264
50.690264
50.690264
50.690264
50.690264
50.690264
50.690264
50.690264
50.690264
50.690264
50.690264
50.690264
50.690264
50.690264
50.690264
50.690264
50.690264
50.690264
50.690264
50.690264
50.690264
50.690264
50.690264
50.690264
50.690264
50.690264
50.690264
50.690264
50.690264
50.690264
50.690264
50.690264
50.690264
50.690264
50.690264
50.690264
50.690264
50.690264
50.690264
50.690264
50.690264
50.690264
50.690264
50.690264
50.690264
50.690264
50.690264
50.690264
50.690264
50.690264
50.690264
50.690264
50.690264
50.690264
50.690264
50.690264
50.690264
50.690264
50.690264
50.690264
50.690264
50.690264
50.690264
50.690264
50.690264
50.690264
50.690264
50.690264
50.690264
50.690264
50.690264
50.690264
50.690264
50.690264
50.690264
50.690264
50.690264
50.690264
50.690264
50.690264
50.690264
50.690264
50.690264
50.690264
50.690264
50.690264
50.690264
50.690264
50.690264
50.690264
50.690264
50.690264
50.690264
50.690264
50.690264
50.690264
50.690264
50.690264
50.690264
50.690264
50.690264
50.690264
50.690264
50.690264
50.690264
50.690264
50.690264
50.690264
50.690264
50.690264
50.690264
50.690264
50.690264
50.690264
50.690264
50.690264
50.690264
50.690264
50.690264
50.690264
50.690264
50.690264
50.690264
50.690264
50.690264
50.690264
50.690264
50.690264
50.690264
50.690264
50.690264
50.690264
50.690264
50.690264
50.690264
50.690264
50.690264
50.690264
50.690264
50.690264
50.690264
50.690264
50.690264
50.690264
50.690264
50.690264
50.690264
50.690264
50.690264
50.690264
50.690264
50.690264
50.690264
50.690264
50.690264
50.690264
50.690264
50.690264
50.690264
50.690264
50.690264
50.690264
50.690264
50.690264
50.690264
50.690264
50.690264
50.690264
50.690264
50.690264
50.690264
50.690264
50.690264
50.690264
50.690264
50.690264
50.690264
50.690264
50.690264
50.690264
50.690264
50.690264
50.690264
50.690264
50.690264
50.690264
50.690264
50.690264
50.690264
50.690264
50.690264
50.690264
50.690264
50.690264
50.690264
50.690264
50.690264
50.690264
50.690264
50.690264
50.690264
50.690264
50.690264
50.690264
50.690264
50.690264
284.54856
284.54856
284.54856
50.690264
50.690264
50.690264
50.690264
284.54856
284.54856
50.690264
50.690264
50.690264
50.690264
50.690264
50.690264
50.690264
50.690264
284.54856
284.54856
50.690264
50.690264
50.690264
50.690264
50.690264
50.690264
50.690264
50.690264
50.690264
50.690264
50.690264
50.690264
50.690264
50.690264
50.690264
50.690264
50.690264
50.690264
50.690264
50.690264
50.690264
50.690264
50.690264
50.690264
50.690264
50.690264
50.690264
50.690264
50.690264
50.690264
50.690264
50.690264
50.690264
50.690264
50.690264
50.690264
284.54856
284.54856
50.690264
284.54856
284.54856
50.690264
284.54856
50.690264
284.54856
284.54856
50.690264
50.690264
284.54856
284.54856
50.690264
284.54856
284.54856
50.690264
50.690264
284.54856
284.54856
50.690264
284.54856
284.54856
50.690264
50.690264
50.690264
284.54856
284.54856
284.54856
284.54856
284.54856
284.54856
50.690264
50.690264
50.690264
50.690264
50.690264
50.690264
284.54856
284.54856
284.54856
50.690264
50.690264
284.54856
284.54856
284.54856
284.54856
284.54856
284.54856
284.54856
284.54856
284.54856
50.690264
50.690264
50.690264
50.690264
50.690264
50.690264
50.690264
284.54856
284.54856
284.54856
50.690264
284.54856
284.54856
50.690264
284.54856
284.54856
284.54856
50.690264
50.690264
50.690264
50.690264
50.690264
50.690264
50.690264
50.690264
50.690264
50.690264
50.690264
50.690264
50.690264
50.690264
50.690264
50.690264
50.690264
50.690264
50.690264
50.690264
50.690264
50.690264
50.690264
50.690264
50.690264
50.690264
50.690264
284.54856
284.54856
284.54856
50.690264
50.690264
50.690264
50.690264
50.690264
50.690264
50.690264
50.690264
50.690264
50.690264
284.54856
50.690264
50.690264
50.690264
50.690264
50.690264
50.690264
50.690264
50.690264
50.690264
50.690264
50.690264
50.690264
50.690264
50.690264
50.690264
50.690264
50.690264
50.690264
50.690264
50.690264
50.690264
50.690264
50.690264
50.690264
50.690264
50.690264
50.690264
50.690264
50.690264
50.690264
50.690264
50.690264
50.690264
50.690264
50.690264
50.690264
50.690264
50.690264
50.690264
50.690264
50.690264
50.690264
50.690264
50.690264
50.690264
50.690264
50.690264
50.690264
50.690264
50.690264
50.690264
50.690264
50.690264
50.690264
50.690264
50.690264
50.690264
50.690264
50.690264
50.690264
50.690264
50.690264
50.690264
50.690264
50.690264
50.690264
50.690264
50.690264
50.690264
50.690264
50.690264
284.54856
284.54856
284.54856
50.690264
50.690264
50.690264
284.54856
50.690264
284.54856
284.54856
50.690264
284.54856
50.690264
50.690264
50.690264
50.690264
50.690264
50.690264
50.690264
50.690264
50.690264
50.690264
50.690264
50.690264
50.690264
50.690264
50.690264
50.690264
50.690264
50.690264
50.690264
50.690264
284.54856
50.690264
284.54856
284.54856
50.690264
50.690264
50.690264
50.690264
50.690264
50.690264
50.690264
50.690264
50.690264
50.690264
50.690264
284.54856
284.54856
284.54856
284.54856
284.54856
284.54856
50.690264
284.54856
284.54856
284.54856
284.54856
284.54856
50.690264
50.690264
284.54856
284.54856
284.54856
50.690264
284.54856
284.54856
50.690264
50.690264
284.54856
284.54856
284.54856
50.690264
50.690264
50.690264
50.690264
50.690264
50.690264
50.690264
50.690264
50.690264
50.690264
50.690264
0
90.139944
271.65653
169.45618
18.897577
166.93953
0
18.450664
0
240.04851
72.086106
0
40.175739
0
27.086703
257.17601
136.03276
0
16.108805
21.67746
0
98.375018
26.747891
121.5375
33.331163
28.983043
0
64.894662
)


648
(
247.54772
247.54772
247.54772
247.54772
247.54772
247.54772
247.54772
247.54772
247.54772
247.54772
247.54772
247.54772
215.0221
247.54772
247.54772
247.54772
247.54772
247.54772
247.54772
247.54772
247.54772
115.75668
106.37733
235.85928
247.54772
234.04254
247.54772
205.0237
247.54772
247.54772
187.26258
247.54772
247.54772
247.54772
247.54772
226.05787
92.716127
197.2562
247.54772
247.54772
247.54772
63.130718
228.11791
247.54772
247.54772
247.54772
247.54772
247.54772
247.54772
247.54772
247.54772
247.54772
247.54772
247.54772
247.54772
247.54772
247.54772
247.54772
247.54772
247.54772
247.54772
38.501412
38.501412
38.501412
38.501412
38.501412
38.501412
38.501412
38.501412
38.501412
38.501412
38.501412
38.501412
38.501412
38.501412
38.501412
38.501412
38.501412
38.501412
38.501412
38.501412
38.501412
38.501412
38.501412
38.501412
38.501412
38.501412
38.501412
38.501412
38.501412
38.501412
38.501412
38.501412
38.501412
38.501412
38.501412
38.501412
38.501412
38.501412
38.501412
38.501412
38.501412
38.501412
38.501412
38.501412
38.501412
38.501412
38.501412
38.501412
38.501412
38.501412
38.501412
38.501412
38.501412
38.501412
38.501412
38.501412
38.501412
38.501412
38.501412
38.501412
38.501412
38.501412
38.501412
38.501412
38.501412
38.501412
38.501412
38.501412
38.501412
38.501412
38.501412
38.501412
38.501412
38.501412
38.501412
38.501412
38.501412
38.501412
38.501412
38.501412
38.501412
38.501412
38.501412
38.501412
38.501412
38.501412
38.501412
38.501412
38.501412
38.501412
38.501412
38.501412
38.501412
38.501412
38.501412
38.501412
38.501412
38.501412
38.501412
38.501412
38.501412
38.501412
38.501412
38.501412
38.501412
38.501412
38.501412
38.501412
38.501412
38.501412
38.501412
38.501412
38.501412
38.501412
38.501412
38.501412
38.501412
38.501412
38.501412
38.501412
38.501412
38.501412
38.501412
38.501412
38.501412
38.501412
38.501412
38.501412
38.501412
38.501412
38.501412
38.501412
38.501412
38.501412
38.501412
38.501412
38.501412
38.501412
38.501412
38.501412
38.501412
38.501412
38.501412
38.501412
38.501412
38.501412
38.501412
38.501412
38.501412
38.501412
38.501412
38.501412
38.501412
38.501412
38.501412
38.501412
38.501412
38.501412
38.501412
38.501412
38.501412
38.501412
38.501412
38.501412
38.501412
38.501412
38.501412
38.501412
38.501412
38.501412
38.501412
38.501412
38.501412
38.501412
38.501412
38.501412
38.501412
38.501412
38.501412
38.501412
38.501412
38.501412
38.501412
38.501412
38.501412
38.501412
38.501412
38.501412
38.501412
38.501412
38.501412
38.501412
38.501412
38.501412
38.501412
38.501412
38.501412
38.501412
38.501412
38.501412
38.501412
38.501412
38.501412
38.501412
38.501412
38.501412
38.501412
38.501412
38.501412
38.501412
38.501412
38.501412
38.501412
38.501412
38.501412
38.501412
38.501412
38.501412
38.501412
38.501412
38.501412
38.501412
38.501412
38.501412
38.501412
38.501412
38.501412
38.501412
38.501412
38.501412
38.501412
38.501412
38.501412
38.501412
38.501412
38.501412
38.501412
38.501412
38.501412
247.54772
247.54772
247.54772
38.501412
38.501412
38.501412
38.501412
247.54772
247.54772
38.501412
38.501412
38.501412
38.501412
38.501412
38.501412
38.501412
38.501412
247.54772
247.54772
38.501412
38.501412
38.501412
38.501412
38.501412
38.501412
38.501412
38.501412
38.501412
38.501412
38.501412
38.501412
38.501412
38.501412
38.501412
38.501412
38.501412
38.501412
38.501412
38.501412
38.501412
38.501412
38.501412
38.501412
38.501412
38.501412
38.501412
38.501412
38.501412
38.501412
38.501412
38.501412
38.501412
38.501412
38.501412
38.501412
247.54772
247.54772
38.501412
247.54772
247.54772
38.501412
247.54772
38.501412
247.54772
247.54772
38.501412
38.501412
247.54772
247.54772
38.501412
247.54772
247.54772
38.501412
38.501412
247.54772
247.54772
38.501412
247.54772
247.54772
38.501412
38.501412
38.501412
247.54772
247.54772
247.54772
247.54772
247.54772
247.54772
38.501412
38.501412
38.501412
38.501412
38.501412
38.501412
247.54772
247.54772
247.54772
38.501412
38.501412
247.54772
247.54772
247.54772
247.54772
247.54772
247.54772
247.54772
247.54772
247.54772
38.501412
38.501412
38.501412
38.501412
38.501412
38.501412
38.501412
247.54772
247.54772
247.54772
38.501412
247.54772
247.54772
38.501412
247.54772
247.54772
247.54772
38.501412
38.501412
38.501412
38.501412
38.501412
38.501412
38.501412
38.501412
38.501412
38.501412
38.501412
38.501412
38.501412
38.501412
38.501412
38.501412
38.501412
38.501412
38.501412
38.501412
38.501412
38.501412
38.501412
38.501412
38.501412
38.501412
38.501412
247.54772
247.54772
247.54772
38.501412
38.501412
38.501412
38.501412
38.501412
38.501412
38.501412
38.501412
38.501412
38.501412
247.54772
38.501412
38.501412
38.501412
38.501412
38.501412
38.501412
38.501412
38.501412
38.501412
38.501412
38.501412
38.501412
38.501412
38.501412
38.501412
38.501412
38.501412
38.501412
38.501412
38.501412
38.501412
38.501412
38.501412
38.501412
38.501412
38.501412
38.501412
38.501412
38.501412
38.501412
38.501412
38.501412
38.501412
38.501412
38.501412
38.501412
38.501412
38.501412
38.501412
38.501412
38.501412
38.501412
38.501412
38.501412
38.501412
38.501412
38.501412
38.501412
38.501412
38.501412
38.501412
38.501412
38.501412
38.501412
38.501412
38.501412
38.501412
38.501412
38.501412
38.501412
38.501412
38.501412
38.501412
38.501412
38.501412
38.501412
38.501412
38.501412
38.501412
38.501412
38.501412
247.54772
247.54772
247.54772
38.501412
38.501412
38.501412
247.54772
38.501412
247.54772
247.54772
38.501412
247.54772
38.501412
38.501412
38.501412
38.501412
38.501412
38.501412
38.501412
38.501412
38.501412
38.501412
38.501412
38.501412
38.501412
38.501412
38.501412
38.501412
38.501412
38.501412
38.501412
38.501412
247.54772
38.501412
247.54772
247.54772
38.501412
38.501412
38.501412
38.501412
38.501412
38.501412
38.501412
38.501412
38.501412
38.501412
38.501412
247.54772
247.54772
247.54772
247.54772
247.54772
247.54772
38.501412
247.54772
247.54772
247.54772
247.54772
247.54772
38.501412
38.501412
247.54772
247.54772
247.54772
38.501412
247.54772
247.54772
38.501412
38.501412
247.54772
247.54772
247.54772
38.501412
38.501412
38.501412
38.501412
38.501412
38.501412
38.501412
38.501412
38.501412
38.501412
38.501412
0
105.6922
222.99183
193.0383
62.07989
164.12281
0
9.3044378
0
248.7473
124.93085
5.3943665
7.5897124
0
3.1180027
189.82642
119.86422
0
0
0
0
27.504354
7.3126391
121.05839
40.32638
27.221518
0
18.781526
)


648
(
218.93877
218.93877
218.93877
218.93877
218.93877
218.93877
218.93877
218.93877
218.93877
218.93877
218.93877
218.93877
218.93877
218.93877
218.93877
218.93877
218.93877
218.93877
194.79655
218.93877
218.93877
164.89394
66.568128
218.93877
218.93877
182.82409
218.93877
218.93877
218.93877
218.93877
173.66821
218.93877
218.93877
218.93877
218.93877
218.93877
92.321026
196.26805
218.93877
218.93877
218.93877
68.491812
218.93877
218.93877
218.93877
218.93877
218.93877
218.93877
218.93877
218.93877
218.93877
218.93877
218.93877
218.93877
218.93877
218.93877
218.93877
218.93877
218.93877
218.93877
218.93877
21.856261
21.856261
21.856261
21.856261
21.856261
21.856261
21.856261
21.856261
21.856261
21.856261
21.856261
21.856261
21.856261
21.856261
21.856261
21.856261
21.856261
21.856261
21.856261
21.856261
21.856261
21.856261
21.856261
21.856261
21.856261
21.856261
21.856261
21.856261
21.856261
21.856261
21.856261
21.856261
21.856261
21.856261
21.856261
21.856261
21.856261
21.856261
21.856261
21.856261
21.856261
21.856261
21.856261
21.856261
21.856261
21.856261
21.856261
21.856261
21.856261
21.856261
21.856261
21.856261
21.856261
21.856261
21.856261
21.856261
21.856261
21.856261
21.856261
21.856261
21.856261
21.856261
21.856261
21.856261
21.856261
21.856261
21.856261
21.856261
21.856261
21.856261
21.856261
21.856261
21.856261
21.856261
21.856261
21.856261
21.856261
21.856261
21.856261
21.856261
21.856261
21.856261
21.856261
21.856261
21.856261
21.856261
21.856261
21.856261
21.856261
21.856261
21.856261
21.856261
21.856261
21.856261
21.856261
21.856261
21.856261
21.856261
21.856261
21.856261
21.856261
21.856261
21.856261
21.856261
21.856261
21.856261
21.856261
21.856261
21.856261
21.856261
21.856261
21.856261
21.856261
21.856261
21.856261
21.856261
21.856261
21.856261
21.856261
21.856261
21.856261
21.856261
21.856261
21.856261
21.856261
21.856261
21.856261
21.856261
21.856261
21.856261
21.856261
21.856261
21.856261
21.856261
21.856261
21.856261
21.856261
21.856261
21.856261
21.856261
21.856261
21.856261
21.856261
21.856261
21.856261
21.856261
21.856261
21.856261
21.856261
21.856261
21.856261
21.856261
21.856261
21.856261
21.856261
21.856261
21.856261
21.856261
21.856261
21.856261
21.856261
21.856261
21.856261
21.856261
21.856261
21.856261
21.856261
21.856261
21.856261
21.856261
21.856261
21.856261
21.856261
21.856261
21.856261
21.856261
21.856261
21.856261
21.856261
21.856261
21.856261
21.856261
21.856261
21.856261
21.856261
21.856261
21.856261
21.856261
21.856261
21.856261
21.856261
21.856261
21.856261
21.856261
21.856261
21.856261
21.856261
21.856261
21.856261
21.856261
21.856261
21.856261
21.856261
21.856261
21.856261
21.856261
21.856261
21.856261
21.856261
21.856261
21.856261
21.856261
21.856261
21.856261
21.856261
21.856261
21.856261
21.856261
21.856261
21.856261
21.856261
21.856261
21.856261
21.856261
21.856261
21.856261
21.856261
21.856261
21.856261
21.856261
21.856261
21.856261
21.856261
21.856261
21.856261
21.856261
21.856261
21.856261
21.856261
218.93877
218.93877
218.93877
21.856261
21.856261
21.856261
21.856261
218.93877
218.93877
21.856261
21.856261
21.856261
21.856261
21.856261
21.856261
21.856261
21.856261
218.93877
218.93877
21.856261
21.856261
21.856261
21.856261
21.856261
21.856261
21.856261
21.856261
21.856261
21.856261
21.856261
21.856261
21.856261
21.856261
21.856261
21.856261
21.856261
21.856261
21.856261
21.856261
21.856261
21.856261
21.856261
21.856261
21.856261
21.856261
21.856261
21.856261
21.856261
21.856261
21.856261
21.856261
21.856261
21.856261
21.856261
21.856261
218.93877
218.93877
21.856261
218.93877
218.93877
21.856261
218.93877
21.856261
218.93877
218.93877
21.856261
21.856261
218.93877
218.93877
21.856261
218.93877
218.93877
21.856261
21.856261
218.93877
218.93877
21.856261
218.93877
218.93877
21.856261
21.856261
21.856261
218.93877
218.93877
218.93877
218.93877
218.93877
218.93877
21.856261
21.856261
21.856261
21.856261
21.856261
21.856261
218.93877
218.93877
218.93877
21.856261
21.856261
218.93877
218.93877
218.93877
218.93877
218.93877
218.93877
218.93877
218.93877
218.93877
21.856261
21.856261
21.856261
21.856261
21.856261
21.856261
21.856261
218.93877
218.93877
218.93877
21.856261
218.93877
218.93877
21.856261
218.93877
218.93877
218.93877
21.856261
21.856261
21.856261
21.856261
21.856261
21.856261
21.856261
21.856261
21.856261
21.856261
21.856261
21.856261
21.856261
21.856261
21.856261
21.856261
21.856261
21.856261
21.856261
21.856261
21.856261
21.856261
21.856261
21.856261
21.856261
21.856261
21.856261
218.93877
218.93877
218.93877
21.856261
21.856261
21.856261
21.856261
21.856261
21.856261
21.856261
21.856261
21.856261
21.856261
218.93877
21.856261
21.856261
21.856261
21.856261
21.856261
21.856261
21.856261
21.856261
21.856261
21.856261
21.856261
21.856261
21.856261
21.856261
21.856261
21.856261
21.856261
21.856261
21.856261
21.856261
21.856261
21.856261
21.856261
21.856261
21.856261
21.856261
21.856261
21.856261
21.856261
21.856261
21.856261
21.856261
21.856261
21.856261
21.856261
21.856261
21.856261
21.856261
21.856261
21.856261
21.856261
21.856261
21.856261
21.856261
21.856261
21.856261
21.856261
21.856261
21.856261
21.856261
21.856261
21.856261
21.856261
21.856261
21.856261
21.856261
21.856261
21.856261
21.856261
21.856261
21.856261
21.856261
21.856261
21.856261
21.856261
21.856261
21.856261
21.856261
21.856261
21.856261
21.856261
218.93877
218.93877
218.93877
21.856261
21.856261
21.856261
218.93877
21.856261
218.93877
218.93877
21.856261
218.93877
21.856261
21.856261
21.856261
21.856261
21.856261
21.856261
21.856261
21.856261
21.856261
21.856261
21.856261
21.856261
21.856261
21.856261
21.856261
21.856261
21.856261
21.856261
21.856261
21.856261
218.93877
21.856261
218.93877
218.93877
21.856261
21.856261
21.856261
21.856261
21.856261
21.856261
21.856261
21.856261
21.856261
21.856261
21.856261
218.93877
218.93877
218.93877
218.93877
218.93877
218.93877
21.856261
218.93877
218.93877
218.93877
218.93877
218.93877
21.856261
21.856261
218.93877
218.93877
218.93877
21.856261
218.93877
218.93877
21.856261
21.856261
218.93877
218.93877
218.93877
21.856261
21.856261
21.856261
21.856261
21.856261
21.856261
21.856261
21.856261
21.856261
21.856261
21.856261
0
121.47133
175.31224
213.68211
111.22001
158.22993
0
4.9859263
0
258.86655
173.66349
5.9668062
0
0
9.9828058
129.73868
111.87582
0
0
0
0
0
41.069382
116.7534
40.368522
0
0
14.320516
)


648
(
161.63452
180.4505
180.4505
180.4505
180.4505
180.4505
180.4505
180.4505
180.4505
180.4505
147.47474
180.4505
180.4505
153.16615
180.4505
180.4505
180.4505
180.4505
106.80539
180.4505
180.4505
180.4505
99.675376
180.4505
180.4505
162.07671
180.4505
180.4505
180.4505
160.27512
180.4505
180.4505
158.2008
180.4505
180.4505
180.4505
159.83713
158.82631
180.4505
180.27877
180.4505
125.43199
180.4505
180.4505
180.4505
180.4505
180.4505
180.4505
180.4505
180.4505
180.4505
180.44794
169.11888
180.4505
180.4505
180.4505
180.4505
180.44074
180.4505
180.34709
180.4505
0
0
0
0
0
0
0
0
0
0
0
0
0
0
0
0
0
0
0
0
0
0
0
0
0
0
0
0
0
0
0
0
0
0
0
0
0
0
0
0
0
0
0
0
0
0
0
0
0
0
0
0
0
0
0
0
0
0
0
0
0
0
0
0
0
0
0
0
0
0
0
0
0
0
0
0
0
0
0
0
0
0
0
0
0
0
0
0
0
0
0
0
0
0
0
0
0
0
0
0
0
0
0
0
0
0
0
0
0
0
0
0
0
0
0
0
0
0
0
0
0
0
0
0
0
0
0
0
0
0
0
0
0
0
0
0
0
0
0
0
0
0
0
0
0
0
0
0
0
0
0
0
0
0
0
0
0
0
0
0
0
0
0
0
0
0
0
0
0
0
0
0
0
0
0
0
0
0
0
0
0
0
0
0
0
0
0
0
0
0
0
0
0
0
0
0
0
0
0
0
0
0
0
0
0
0
0
0
0
0
0
0
0
0
0
0
0
0
0
0
0
0
0
0
0
0
0
0
0
0
0
0
0
0
0
0
0
0
0
180.4505
180.4505
180.4505
0
0
0
0
180.4505
180.4505
0
0
0
0
0
0
0
0
180.4505
180.4505
0
0
0
0
0
0
0
0
0
0
0
0
0
0
0
0
0
0
0
0
0
0
0
0
0
0
0
0
0
0
0
0
0
0
0
0
180.4505
180.4505
0
180.4505
180.4505
0
180.4505
0
180.4505
180.4505
0
0
180.4505
180.4505
0
180.4505
180.4505
0
0
180.4505
180.4505
0
180.4505
180.4505
0
0
0
180.4505
180.4505
180.4505
180.4505
180.4505
180.4505
0
0
0
0
0
0
180.4505
180.4505
180.4505
0
0
180.4505
180.4505
180.4505
180.4505
180.4505
180.4505
180.4505
180.4505
180.4505
0
0
0
0
0
0
0
180.4505
180.4505
180.4505
0
180.4505
180.4505
0
180.4505
180.4505
180.4505
0
0
0
0
0
0
0
0
0
0
0
0
0
0
0
0
0
0
0
0
0
0
0
0
0
0
0
180.4505
180.4505
180.4505
0
0
0
0
0
0
0
0
0
0
180.4505
0
0
0
0
0
0
0
0
0
0
0
0
0
0
0
0
0
0
0
0
0
0
0
0
0
0
0
0
0
0
0
0
0
0
0
0
0
0
0
0
0
0
0
0
0
0
0
0
0
0
0
0
0
0
0
0
0
0
0
0
0
0
0
0
0
0
0
0
0
0
0
180.4505
180.4505
180.4505
0
0
0
180.4505
0
180.4505
180.4505
0
180.4505
0
0
0
0
0
0
0
0
0
0
0
0
0
0
0
0
0
0
0
0
180.4505
0
180.4505
180.4505
0
0
0
0
0
0
0
0
0
0
0
180.4505
180.4505
180.4505
180.4505
180.4505
180.4505
0
180.4505
180.4505
180.4505
180.4505
180.4505
0
0
180.4505
180.4505
180.4505
0
180.4505
180.4505
0
0
180.4505
180.4505
180.4505
0
0
0
0
0
0
0
0
0
0
0
8.851345
139.22922
112.76519
219.34075
150.88726
132.88165
0
43.328239
37.934434
254.77645
208.73262
13.490918
0
29.551286
14.908666
74.121369
92.4476
0
0
0
0
0
90.41597
100.27612
33.26217
0
0
19.819215
)

)


// ************************************************************************* //
