/*--------------------------------*- C++ -*----------------------------------*\
  =========                 |
  \\      /  F ield         | OpenFOAM: The Open Source CFD Toolbox
   \\    /   O peration     | Website:  https://openfoam.org
    \\  /    A nd           | Version:  8
     \\/     M anipulation  |
\*---------------------------------------------------------------------------*/
/*   Windows 32 and 64 bit porting by blueCAPE: http://www.bluecape.com.pt   *\
|  Based on Windows porting (2.0.x v4) by Symscape: http://www.symscape.com   |
\*---------------------------------------------------------------------------*/
FoamFile
{
    version     2.0;
    format      ascii;
    class       polyBoundaryMesh;
    location    "constant/vegetation/polyMesh";
    object      boundary;
}
// * * * * * * * * * * * * * * * * * * * * * * * * * * * * * * * * * * * * * //

13
(
    left
    {
        type            mappedPatch;
        inGroups        List<word> 1(mappedPatch);
        nFaces          0;
        startFace       15457;
        sampleMode      nearestPatchFace;
        sampleRegion    air;
        samplePatch     left;
    }
    right
    {
        type            mappedPatch;
        inGroups        List<word> 1(mappedPatch);
        nFaces          0;
        startFace       15457;
        sampleMode      nearestPatchFace;
        sampleRegion    air;
        samplePatch     right;
    }
    back
    {
        type            mappedPatch;
        inGroups        List<word> 1(mappedPatch);
        nFaces          0;
        startFace       15457;
        sampleMode      nearestPatchFace;
        sampleRegion    air;
        samplePatch     back;
    }
    front
    {
        type            mappedPatch;
        inGroups        List<word> 1(mappedPatch);
        nFaces          12;
        startFace       15457;
        sampleMode      nearestPatchFace;
        sampleRegion    air;
        samplePatch     front;
    }
    bottom
    {
        type            mappedWall;
        inGroups        List<word> 
2
(
wall
mappedPatch
)
;
        nFaces          259;
        startFace       15469;
        sampleMode      nearestPatchFace;
        sampleRegion    air;
        samplePatch     bottom;
    }
    top
    {
        type            mappedPatch;
        inGroups        List<word> 1(mappedPatch);
        nFaces          47;
        startFace       15728;
        sampleMode      nearestPatchFace;
        sampleRegion    air;
        samplePatch     top;
    }
    tower
    {
        type            mappedWall;
        inGroups        List<word> 
2
(
wall
mappedPatch
)
;
        nFaces          110;
        startFace       15775;
        sampleMode      nearestPatchFace;
        sampleRegion    air;
        samplePatch     tower;
    }
    air_to_vegetation
    {
        type            mappedWall;
        inGroups        List<word> 
2
(
wall
mappedPatch
)
;
        nFaces          734;
        startFace       15885;
        sampleMode      nearestCell;
        sampleRegion    air;
        offsetMode      uniform;
        offset          (0 0 0);
    }
    procBoundary8to5
    {
        type            processor;
        inGroups        List<word> 1(processor);
        nFaces          263;
        startFace       16619;
        matchTolerance  0.0001;
        myProcNo        8;
        neighbProcNo    5;
    }
    procBoundary8to6
    {
        type            processor;
        inGroups        List<word> 1(processor);
        nFaces          106;
        startFace       16882;
        matchTolerance  0.0001;
        myProcNo        8;
        neighbProcNo    6;
    }
    procBoundary8to9
    {
        type            processor;
        inGroups        List<word> 1(processor);
        nFaces          425;
        startFace       16988;
        matchTolerance  0.0001;
        myProcNo        8;
        neighbProcNo    9;
    }
    procBoundary8to10
    {
        type            processor;
        inGroups        List<word> 1(processor);
        nFaces          190;
        startFace       17413;
        matchTolerance  0.0001;
        myProcNo        8;
        neighbProcNo    10;
    }
    procBoundary8to12
    {
        type            processor;
        inGroups        List<word> 1(processor);
        nFaces          22;
        startFace       17603;
        matchTolerance  0.0001;
        myProcNo        8;
        neighbProcNo    12;
    }
)

// ************************************************************************* //
