/*--------------------------------*- C++ -*----------------------------------*\
  =========                 |
  \\      /  F ield         | OpenFOAM: The Open Source CFD Toolbox
   \\    /   O peration     | Website:  https://openfoam.org
    \\  /    A nd           | Version:  8
     \\/     M anipulation  |
\*---------------------------------------------------------------------------*/
/*   Windows 32 and 64 bit porting by blueCAPE: http://www.bluecape.com.pt   *\
|  Based on Windows porting (2.0.x v4) by Symscape: http://www.symscape.com   |
\*---------------------------------------------------------------------------*/
FoamFile
{
    version     2.0;
    format      ascii;
    class       scalarListList;
    location    "constant/vegetation";
    object      F;
}
// * * * * * * * * * * * * * * * * * * * * * * * * * * * * * * * * * * * * * //


469
(

507
(
0.0035364205
0.021297277
0.0038034896
0.0055890669
0.0018871197
0.0019570755
0.0012200212
0.0011133644
0.00091021625
0.00066330118
0.0043322558
0.0013494599
0.0025973212
0.0016548735
0.0025165191
0.0015224424
0.00062740184
0.00099498111
0.0005896531
0.00051152985
0.00059243549
0.00043592105
0.00090638918
0.00042219293
0.00037434743
0.00027982141
0.00023793355
0.00044793184
0.020080556
0.0038236169
0.015543246
0.0012508616
0.0015922388
0.0037281037
0.0028141202
0.0026134161
0.0015967926
0.0035462044
0.0021037845
0.0018926272
0.0023147909
0.0019613495
0.0031263479
0.0025223545
0.0026218046
0.00017400864
0.00017514572
0.00019533896
0.00015679433
0.00017206429
0.00016744153
0.00018907243
0.00015289808
0.00019296819
0.00024133363
0.00021765519
0.00021288218
0.00015571196
0.00012515604
0.00014061257
0.00013869064
0.0001286652
0.00015765443
0.0001418362
0.00014191673
0.00010503195
8.7454735e-05
0.00011961266
8.4545983e-05
0.00011292622
0.00011340654
0.00012260436
0.00010642855
0.00011584565
0.00011253527
0.00012733436
0.00010019441
0.00027125341
0.00033116068
0.00031090296
0.0002884326
0.00022285526
0.00018195773
0.00020616896
0.00019608928
0.00025263645
0.00026543541
0.00023299446
0.00028886458
0.00023868943
0.00022195043
0.0002533475
0.00020950931
0.00031735114
0.00034927812
0.00036503807
0.00030386154
0.00027812821
0.00023317699
0.00026654866
0.00024303656
0.0011624051
0.0012481408
0.00045740927
0.00051363977
0.00042763378
0.00054791336
0.00037863957
0.0002976219
0.00046114258
0.00034345275
0.00078812048
0.00061499404
0.00065802633
0.00073455651
0.0009343632
0.0010147463
0.0010905264
0.00086949572
0.00017460138
0.00015579932
0.00017073959
0.00019276724
0.00015323372
0.00014238236
0.00015757721
0.00017065277
0.00018665126
0.00023292195
0.00021217607
0.00020344052
0.00012220721
0.0001333956
0.00013198008
0.00014511016
0.00049366595
0.00041039191
0.00039018887
0.00046859356
0.00024691858
0.00025495356
0.00029819653
0.00028703283
0.00037254027
0.00042637602
0.00044603001
0.00035702833
0.00027595452
0.00026372894
0.00032654007
0.00031088505
0.0001644
0.00017574648
0.00019804593
0.0001841953
0.00019836324
0.0001871224
0.00021201396
0.00022588258
0.00023897895
0.00025484861
0.00022095303
0.00027745849
0.00025726286
0.00032341922
0.00030040949
0.00027550948
0.00023856703
0.00022952262
0.0002646473
0.00027610425
0.00020929261
0.00021973223
0.00025240419
0.00023942221
0.00032684972
0.00040785337
0.00034217745
0.0003885286
0.00031058067
0.00034604494
0.00029338837
0.00036785997
0.0031721614
0.00019730364
0.00022268286
0.00028046712
0.00022057914
0.00027509909
0.00027143902
0.00024410311
0.00034188386
0.00027935519
0.00024918686
0.00027825155
0.00034778126
0.00039257669
0.00036796176
0.00046693764
0.00050047638
0.00031182295
0.00034096722
0.00043273909
0.0003904637
0.0011400962
0.0013195941
0.0011642752
0.00059581972
0.00071372976
0.00075540543
0.00056764851
0.00063445971
0.00051737434
0.00053870246
0.00067631329
0.00098615334
0.00084169327
0.00078354308
0.0010079683
0.00049936521
0.00065671555
0.00047503253
0.00062601877
0.00042001918
0.00044835072
0.00059039983
0.00054972738
0.00030210737
0.00038363006
0.00033144233
0.0004278627
0.00039072571
0.00036101715
0.00046734263
0.00051040909
0.005945666
0.0035767204
0.0017534283
0.0013695763
0.013798424
0.0051430364
0.0016877832
0.0010588005
0.0010760032
0.0015881313
0.0008223359
0.00060270853
0.00044565883
0.00057812017
0.00057843515
0.13836681
0.094668048
0.002246337
0.00225638
0.005098304
0.0052282201
0.0029032
0.0047523302
0.0029788458
0.0049959392
0.00064410849
0.00062514545
0.00042785089
0.00046699738
0.00038842664
0.00034968103
0.0021166107
0.00065795484
0.00066659908
0.0045177799
0.00503264
0.00057279211
0.00060124179
0.00054040474
0.00050484446
0.00027690749
0.00031237138
0.00066342661
0.00066938285
0.0035862433
0.0042309828
0.00024309057
0.00020954065
0.0028228802
0.003714681
0.0043034698
0.0048022881
0.0044208765
0.00028792649
0.00025805843
0.00029581974
0.00025137222
0.00032875751
0.00038884295
0.00037832974
0.00033795501
0.00031994635
0.00038459059
0.00036520496
0.0003359039
0.00026198084
0.00022343454
0.00022741197
0.0002349946
0.00029593098
0.00028868589
0.00025398719
0.00033680603
0.0002816474
0.00025782753
0.0002945047
0.00024874562
0.00034929357
0.00039644189
0.00040130608
0.00034540894
0.00030496653
0.00026291054
0.00030160366
0.00026567718
0.00034874195
0.00039632803
0.00034474699
0.00040074063
0.00030540677
0.00026353298
0.00030220025
0.00026602405
0.0016849778
0.0015047336
0.0015901037
0.0015912038
0.0017556349
0.001691144
0.0016517464
0.0018017707
0.0013484369
0.0013962066
0.0014771658
0.00126816
0.0012073786
0.00090983831
0.0010890427
0.0011174073
0.0017858046
0.0016123553
0.001668896
0.0017271311
0.0018174747
0.0017082379
0.0018225932
0.0017009651
0.001530859
0.0015314146
0.0016417352
0.0014271933
0.0013976961
0.001302553
0.00063698624
0.0004398591
0.00041647927
0.00047317446
0.00050093126
0.00046442792
0.00041657959
0.00048943454
0.0005474243
0.00032798479
0.00037083533
0.00038323653
0.00043437652
0.00053454422
0.00063806537
0.00056716325
0.00059958658
0.001356529
0.00122909
0.0011824008
0.0013032139
0.00080889854
0.00082663889
0.001008535
0.00098114299
0.0011421425
0.0012126878
0.0012551361
0.0011065227
0.00086886936
0.00084471293
0.0010772744
0.0010392612
0.00078824889
0.00076277987
0.00091880453
0.00095235756
0.00069544087
0.00073178762
0.00087901577
0.00083297567
0.0010293537
0.0011704034
0.0010703466
0.0011223756
0.00098169115
0.0010041283
0.00092727573
0.0010667625
0.0005133518
0.00056215681
0.00066705212
0.00060710936
0.00065438989
0.00060958242
0.00072569021
0.0007814737
0.0007351901
0.00071243252
0.00066699268
0.00078801902
0.0008024656
0.00093562737
0.00086295028
0.00086705163
0.00012212594
0.00017217962
0.0035490076
0.003798569
0.0042453074
0.00041445467
0.00043338138
0.00055253278
0.00052774487
0.00046086825
0.00044910315
0.00057158903
0.00058278321
0.00045890288
0.00046747934
0.00059822686
0.00052638207
0.00059862055
0.00067597914
0.00059618107
0.00075008812
0.00046445546
0.00046642823
0.000526932
0.00058313963
0.001474915
0.0015616152
0.001660987
0.0014216798
0.0014118876
0.0013225059
0.0013642159
0.0015064795
0.0016554798
0.0016132414
0.0015084941
0.0016984508
0.00150564
0.0014024884
0.0014423436
0.0015539116
0.0012793809
0.0015863331
0.0016436715
0.0016972814
0.001635226
0.0016850606
0.0016771683
0.0017325505
0.0017333234
0.00076435014
0.0008502753
0.00084914302
0.00095690156
0.0010153112
0.00093314767
0.0010515344
0.0011526952
0.0012862214
0.001470347
0.0012309511
0.00140856
0.0010936039
0.0011661602
0.0013327877
0.001242666
0.052506174
0.0033688913
0.0032725
0.0083266068
0.0067477748
0.0044425816
0.010113722
0.0078277057
0.019242437
0.040320096
0.011405316
0.0039097678
0.0095328207
0.0080001701
0.0071837515
0.0040203225
0.0070722068
0.0033942977
)


517
(
0.0011941598
0.00011415453
0.00024225142
0.00075742186
0.00050303433
0.00025917994
0.00044223559
0.00054190876
0.00036521861
0.00016307118
0.00022813889
0.00050244686
0.0016075948
0.0018247264
0.0017420057
0.00049394522
0.00029887998
0.0028738864
0.017376585
0.0085365414
0.0015387183
0.00065179724
0.00061084192
0.00051747626
0.00039690321
0.00090755833
0.00034016737
0.0098661696
0.0006766075
0.0027358989
0.0012355441
0.0065447643
0.0025109192
0.00070221168
0.0013402788
0.00025519636
0.00034640109
0.00047481034
0.00025657644
0.0015209392
0.00040217566
0.00030669025
0.00018180575
0.00012518078
0.00058031255
0.0064571902
0.0051459405
0.013134536
0.0019301499
0.0029356547
0.001538762
0.0011046514
0.0013422284
0.0019139094
0.0019619876
0.0029549331
0.0042305182
0.0015768476
0.0017793361
0.0023635732
0.0042345105
0.0027178905
0.00037319563
0.00031507495
0.00038422921
0.00030657312
0.000441568
0.00051310279
0.00053969732
0.00042117168
0.00045710876
0.00057960747
0.00047156449
0.00056025836
0.00036118786
0.00028307501
0.00029675032
0.00034508977
0.00021347471
0.00026127491
0.00021806001
0.00025475145
0.00017408455
0.00014473362
0.00018536396
0.00015009879
0.00017450565
0.00015340738
0.00017626023
0.00015398951
0.00020656596
0.00023298034
0.000246179
0.00019125005
0.00098636961
0.0012067789
0.0010287276
0.0011551695
0.0007916236
0.00062185439
0.00065658119
0.00074684884
0.00082693203
0.00070970833
0.00068374645
0.00086067794
0.00094157815
0.0010310218
0.0011001234
0.00088515004
0.0014789559
0.0013839525
0.0015478086
0.0013231896
0.0014044814
0.0011761067
0.0012579029
0.001311111
0.00028226038
0.00026319038
0.00012303134
0.00014432562
0.00012701197
0.00013874651
0.00010848632
0.00010054335
0.00014232398
0.00010836558
0.00017992218
0.00016454555
0.00015765739
0.00018863341
0.00020518414
0.00024782919
0.00023309903
0.00021644699
0.00026559221
0.00022091703
0.00022224313
0.00026762586
0.0001532361
0.0001542586
0.00017832264
0.00017704631
0.00022204463
0.0002653912
0.00026746596
0.00022032584
0.00015403715
0.00017775678
0.00015447704
0.00017852885
0.00015377379
0.00013418999
0.00014040308
0.00016188182
0.00011469892
0.00010913291
0.00012259372
0.00012904682
0.00014757199
0.00018158341
0.00017097776
0.00015587419
0.0001007987
0.00010420739
0.00011259807
0.00011702519
0.00015138913
0.00014874881
0.00017134853
0.00017470309
0.00014133263
0.00014537155
0.00016706437
0.0001619537
0.00021254818
0.0002614553
0.00021713155
0.00025551932
0.00020670374
0.00023865662
0.00024780329
0.00019975685
0.00012046416
0.00012616521
0.00014296386
0.000135966
0.00013671896
0.00013162702
0.00014975568
0.00015613884
0.00017419358
0.00019331222
0.00016491863
0.00020533646
0.00018328186
0.00022833259
0.00019188243
0.00021711891
0.003858522
0.00032427609
0.00039846987
0.00045258287
0.00032899839
0.00039813735
0.0003280205
0.00032849409
0.00044297917
0.00060543668
0.00048917931
0.00049037776
0.00066961633
0.0012817969
0.0010915565
0.0012132146
0.0014342797
0.00074976324
0.00091187066
0.0010194726
0.00082685304
0.00031971854
0.00044270673
0.00038114838
0.00017805366
0.00020635647
0.0002472218
0.00018966346
0.0002337835
0.00021646555
0.00020132011
0.00028118389
0.00027578504
0.00023784226
0.00025232757
0.00032615123
0.00023436591
0.00030746893
0.00025074149
0.00033415748
0.00028177983
0.00026663575
0.00035678611
0.00038018651
0.00032638111
0.00044319652
0.00031875648
0.00043441986
0.00029580125
0.00030828737
0.00041939287
0.00040032234
0.12585888
0.007328459
0.0039229546
0.002759598
0.17667002
0.021584758
0.0036996312
0.0023528482
0.002293482
0.0036682963
0.0012903297
0.0010724797
0.0007427451
0.001030202
0.0010352448
0.028020431
0.0065034402
0.0067841948
0.0028187431
0.0027941381
0.0064564724
0.0037103486
0.0064179996
0.0037608557
0.00046855556
0.00052641643
0.00092329109
0.00085966328
0.00097994614
0.0010264525
0.0055557929
0.00041562667
0.00036776187
0.0020333845
0.002495017
0.00065463045
0.0005887178
0.00072294986
0.0007920146
0.0010750813
0.0010594314
0.00028446378
0.00032452029
0.0057022156
0.0047223501
0.0010680492
0.0010278985
0.0055278577
0.0057216725
0.0026633701
0.0033314001
0.0047685304
0.0015303179
0.0015194708
0.001628914
0.0014275133
0.0016120956
0.0017936265
0.0016872413
0.0017154648
0.0016175825
0.0017690846
0.0016563257
0.0017187228
0.0014406289
0.0013191956
0.0012385565
0.0014003062
0.0014792388
0.0012791916
0.0012570004
0.0015081299
0.001564649
0.0015630794
0.0016524855
0.0014957967
0.001821034
0.0018486409
0.0018907439
0.0017869985
0.0017328673
0.001583827
0.0016968022
0.0016195811
0.0018205925
0.0018627529
0.0017854065
0.001895079
0.0017371937
0.0016076905
0.001710249
0.0016271405
0.00044655274
0.00047787187
0.00049475418
0.00043321038
0.00045350174
0.00050404444
0.00050347429
0.00045350057
0.00039202053
0.00045359051
0.00041446462
0.00042357005
0.00036644303
0.00032919219
0.0003479921
0.00038668987
0.00041217552
0.00042636857
0.00045618413
0.00038690833
0.00043235494
0.00049629552
0.00044636648
0.00048002665
0.0003267286
0.00039228552
0.00035793515
0.00035579004
0.00029472709
0.00031865156
0.00024323204
0.0017947747
0.0016718478
0.0016613633
0.0017915392
0.0011784216
0.0012312035
0.0014633373
0.0014048476
0.0012837802
0.001267318
0.0015166426
0.0015014972
0.0016252008
0.0017029542
0.0017597347
0.0015658103
0.00051174405
0.00047318741
0.00052683351
0.00057296078
0.00049938941
0.00044322345
0.00052903434
0.00059611881
0.0005908751
0.00073024472
0.00064482979
0.00066705924
0.0003566837
0.00039534469
0.00042644665
0.0004726573
0.00056316902
0.00063365198
0.00075874231
0.0006731711
0.00079012892
0.00070974455
0.00085110073
0.00094830063
0.00085225135
0.00082886481
0.00075480262
0.0009377774
0.00095716535
0.0011752418
0.0010669781
0.0010541655
0.0011125334
0.0010373081
0.0012425141
0.0013298127
0.0008730868
0.00095639952
0.0011472373
0.0010479926
0.0013930067
0.001624528
0.001486932
0.0015272195
0.0012887479
0.001297341
0.0014162305
0.0011786931
0.00071230444
0.0009287444
0.0049855549
0.0032937427
0.0041942425
0.0014708518
0.0016453763
0.001837799
0.0016376766
0.0019012292
0.001792527
0.0019940843
0.002103056
0.0019023747
0.0019622239
0.0021982132
0.0019163885
0.0019201533
0.0018449016
0.0018871193
0.0020804915
0.0019507991
0.0019688869
0.0019543887
0.0021405677
0.00054793595
0.00057210201
0.0007230903
0.0006198712
0.00072443566
0.00079846515
0.00069924027
0.00091425928
0.00058616837
0.00058185577
0.00064746327
0.00072371656
0.00045472038
0.00040973346
0.00049970416
0.00056096876
0.00036424001
0.00049695627
0.00053406896
0.00066499891
0.00061460892
0.0005829721
0.00056361365
0.00070251475
0.00072406793
0.0017854965
0.0020339315
0.0016863123
0.001935803
0.0014390135
0.0015681353
0.0018098755
0.0016601207
0.00091735449
0.0010514563
0.0010406267
0.0012061928
0.0013049182
0.0011707514
0.0013518197
0.0015125646
0.056442668
0.046110805
0.0021686155
0.0020728452
0.0024209008
0.013444417
0.0037192753
0.0045952898
0.012544746
0.012234326
0.022469513
0.0057966348
)


477
(
0.00026515894
8.931161e-05
0.000301744
0.0018082641
0.00099005837
0.0021396342
0.00042627149
0.00030120557
0.00062337286
0.00048874412
0.00078008854
0.00018500353
0.00018587945
0.0012459069
7.130631e-05
7.0513192e-05
0.0039017887
0.0028631938
0.0009103318
0.012240453
0.018405227
0.0075541472
0.00021417354
0.00032326937
0.00038786246
0.00028754933
0.00029797879
0.00025815385
0.00042140731
0.0003895835
0.00049505179
0.00029805993
0.00028547048
0.00043173781
0.00058253604
0.0004226477
1.7934228e-05
2.0788032e-05
2.4771303e-05
1.5019071e-05
1.3233982e-05
5.4472633e-06
1.6224348e-05
4.4369017e-06
2.1707329e-05
3.6559115e-05
2.9920373e-05
2.6563869e-05
1.0906262e-05
3.0253039e-06
9.095895e-06
3.6469925e-06
1.1021914e-05
1.7733034e-05
1.5283469e-05
1.2789297e-05
5.6546352e-06
1.3560476e-06
5.8838589e-06
1.669316e-06
9.2844996e-06
1.1540785e-05
1.2785016e-05
8.4756474e-06
6.6018136e-06
2.5315869e-06
7.6976633e-06
2.1158193e-06
5.1533717e-05
8.9183811e-05
7.0453946e-05
6.5473992e-05
2.5092637e-05
6.74932e-06
2.0081618e-05
8.4418309e-06
4.0938716e-05
4.5115855e-05
3.2824143e-05
5.6144693e-05
3.165407e-05
1.3596953e-05
4.0318781e-05
1.0661188e-05
0.00010848064
0.00011383607
0.00014639107
8.3931768e-05
6.7233673e-05
1.7508008e-05
5.1837782e-05
2.2748253e-05
9.7653815e-05
9.9939212e-05
5.1856405e-05
5.4775238e-05
4.9600063e-05
5.7013834e-05
4.6899144e-05
4.1592683e-05
6.3507126e-05
4.3550094e-05
7.0730183e-05
6.0809231e-05
6.327544e-05
6.8082127e-05
7.9309854e-05
8.6437252e-05
8.9028785e-05
7.6598781e-05
2.24512e-05
1.9346069e-05
2.3181001e-05
2.6873697e-05
2.2808271e-05
2.0226485e-05
2.2402461e-05
2.5211273e-05
2.6756635e-05
3.4693577e-05
3.0956794e-05
3.0044501e-05
1.4555675e-05
1.6157106e-05
1.7465494e-05
1.9374623e-05
5.4060962e-05
4.8705775e-05
4.741845e-05
5.2794581e-05
3.6462933e-05
3.7110416e-05
4.0065404e-05
3.9347677e-05
4.6406095e-05
5.1093691e-05
5.1786075e-05
4.5635389e-05
3.9087915e-05
3.7857333e-05
4.2223365e-05
4.0967566e-05
2.5190723e-05
2.7360513e-05
3.0096365e-05
2.7780294e-05
3.1032821e-05
2.9309178e-05
3.2151621e-05
3.3943253e-05
3.5676225e-05
3.8063148e-05
3.3022614e-05
4.1014049e-05
3.7998551e-05
4.5661763e-05
4.3539922e-05
3.9989828e-05
3.5744562e-05
3.4872985e-05
3.7792491e-05
3.8633597e-05
3.2531294e-05
3.380831e-05
3.6751142e-05
3.5473821e-05
4.4078075e-05
5.0510495e-05
4.4917569e-05
4.977177e-05
4.3008872e-05
4.7390707e-05
4.1655359e-05
4.8748611e-05
0.00061681783
2.6574246e-05
3.1816946e-05
4.2914391e-05
3.1944624e-05
4.3139621e-05
4.1230002e-05
3.6660686e-05
5.3783998e-05
4.6984761e-05
3.8311952e-05
4.5365992e-05
6.1581765e-05
0.000114241
9.0680137e-05
0.00011760942
0.00014855017
5.8415725e-05
7.2546235e-05
9.5329594e-05
7.6044765e-05
0.0001009585
0.00012666799
0.00010948279
6.0746168e-05
6.8534959e-05
7.5360485e-05
5.9832041e-05
6.5966085e-05
5.8641143e-05
5.8829322e-05
7.330045e-05
8.8014024e-05
7.7235121e-05
7.5162052e-05
9.488736e-05
5.8854477e-05
7.437696e-05
5.8319914e-05
7.4536021e-05
5.6006464e-05
5.737724e-05
7.3747792e-05
7.2316676e-05
4.5580867e-05
5.9390325e-05
4.9021938e-05
6.4205884e-05
5.4180922e-05
5.1863254e-05
6.7521197e-05
7.0364697e-05
0.039146462
0.39187225
0.044643542
0.0011914598
0.0017863739
0.0010850729
0.00088409855
0.0017996216
0.0012775594
0.0013005518
0.0010435324
0.00044371196
0.00050027739
0.00099388035
0.00089850028
0.0010845912
0.0011599789
0.00076818828
0.00039419573
0.00035099625
0.00051948641
0.00068632102
0.00063676014
0.00056448818
0.00071715076
0.00080501439
0.0011931133
0.0012038057
0.00027856679
0.00031305727
0.0016786219
0.0014875561
0.0010988687
0.0008920991
0.00087541148
0.0012717628
0.00058001973
0.0007884756
0.0011742617
8.7842649e-05
3.9203858e-05
0.00011535038
2.9782955e-05
0.00014116004
0.00024573381
0.00018938394
0.00018449311
0.00076176105
0.00080384832
0.00095188367
0.00063455785
0.00058680511
0.00024832367
0.00062873761
0.00021220238
0.00087886937
0.0011186089
0.00092025016
0.0010821335
0.00050016095
0.00014311887
0.00041125997
0.00017659402
0.00040527577
0.00065830268
0.00052521171
0.00051333803
0.00019880763
5.170005e-05
0.00015169671
6.7973767e-05
0.00031437868
0.00031862237
0.00024133396
0.00041126256
0.00025803866
0.00011368107
0.0003294335
8.857023e-05
0.00026772758
0.00029666225
0.00027801744
0.00028482686
0.0002492157
0.00023637344
0.0002574934
0.0002300017
0.00031235211
0.00031205402
0.00029980494
0.00032306966
0.00032120585
0.00030453416
0.0003344865
0.00032612476
0.00017351726
0.00015670111
0.0001751151
0.00015631108
0.00019172681
0.0002153669
0.00021067908
0.00019479417
0.00012553775
0.00013971203
0.00014028804
0.00012422069
0.00011209247
0.00011022994
0.00024291349
0.00091462872
0.0010676693
0.0011168689
0.00097011958
0.001140772
0.0012102412
0.0012150615
0.0011571029
0.0012212114
0.0012441412
0.0011965909
0.0012346051
0.0011134223
0.00095647664
0.0009799387
0.0010727936
0.00033650364
0.00034736166
0.00037409841
0.00036179856
0.00042880829
0.00038471169
0.00041171532
0.00045637237
0.00040793096
0.00043162627
0.00039296168
0.00045002494
0.00032111958
0.00034857469
0.00034824268
0.00037581834
0.00048078739
0.00054070871
0.00057110668
0.00050961035
0.00068501395
0.00060874087
0.00064064295
0.00071799956
0.00055797023
0.00047767895
0.00050023441
0.00052994427
0.00062273192
0.00065025925
0.00069396892
0.00058766601
0.0010522611
0.00095632899
0.00098598518
0.0010767633
0.00076928051
0.00086050899
0.0008928857
0.00080257717
0.00093236297
0.00091074291
0.0010088139
0.00085105784
0.00085127699
0.00071654562
0.00078454714
0.0007707473
0.00017162874
0.00056297388
0.00089560257
0.00061267542
0.00085985756
0.00014499564
0.00018526577
0.0002371029
0.0001856239
0.0003054139
0.00023779124
0.00029872843
0.0003800688
0.00076581144
0.00062102883
0.00074638821
0.00082653286
0.00068438341
0.00083918501
0.00084427141
0.00075317054
0.00038744893
0.00049116524
0.00053000613
0.00046923371
0.00032252751
0.00030233156
0.00035836258
0.00034746048
0.0003418126
0.00041201607
0.00037518676
0.00040891893
0.00025491881
0.00027780557
0.0002885992
0.00029104815
0.00014742913
0.00013021851
0.00014400291
0.00016507203
0.00011480198
0.00016647719
0.00018734459
0.00021279294
0.00018692626
0.00023322464
0.00020979848
0.00023904163
0.00026701796
0.00081718581
0.00074720508
0.00077376814
0.00072028496
0.00066549022
0.00072135206
0.00068163251
0.00063514936
0.00045757139
0.00045100887
0.00050475026
0.00049766159
0.00060955542
0.00055557644
0.00054116398
0.00058980185
0.11566243
0.020958904
0.099729732
0.019515053
0.047957867
0.017508797
0.023192507
0.075553267
0.0044502335
0.0039378676
0.007608081
)


1361
(
7.8390748e-08
2.324192e-06
1.6155188e-06
6.0904578e-07
8.0044389e-07
1.9766582e-06
2.5129323e-07
1.6695599e-06
4.3053678e-07
1.0759481e-06
1.8115869e-06
0.00046661677
0.00055434077
0.00029085321
9.5199639e-05
0.00036524351
0.00017104116
0.00032396436
8.9975779e-05
1.17902e-07
1.7392812e-07
1.991408e-07
2.1917424e-07
5.7505864e-08
1.1260353e-07
8.3985262e-08
8.0026884e-08
1.6092271e-07
2.532635e-07
1.3791829e-07
6.6985e-08
4.2035637e-08
4.6391006e-08
3.7577016e-08
3.2720891e-08
3.055974e-08
2.1704656e-08
2.3944146e-08
1.4907055e-08
1.2624959e-08
4.8057852e-08
4.3675228e-08
5.0012398e-08
5.8552827e-08
4.8829947e-08
5.7434832e-08
3.9081899e-08
4.1278476e-08
4.3547478e-08
3.6116737e-08
4.2754488e-08
1.7132188e-08
6.5561637e-08
2.0248693e-07
1.1422642e-07
1.8717806e-07
4.0986132e-09
3.7395844e-09
9.8035859e-08
5.0471405e-09
5.6735505e-08
9.8531745e-08
1.3119617e-07
1.6047219e-07
4.2820779e-09
3.6985959e-09
5.0305869e-09
8.4412546e-09
3.6630945e-09
5.8563207e-09
2.8233717e-08
2.6414195e-08
3.8975368e-08
4.1654186e-08
4.0456283e-08
4.3006666e-08
5.3213806e-08
1.8809026e-08
2.0676419e-08
1.2751021e-08
1.1240939e-08
5.970594e-08
6.0573106e-08
6.12421e-09
6.5364313e-09
6.0119853e-09
6.2361207e-09
8.5301208e-09
5.6195502e-08
1.3468529e-09
1.2977916e-09
1.8366371e-09
2.2373816e-08
4.8078259e-08
5.2248094e-08
2.9091432e-08
5.9294452e-08
6.8908615e-09
1.5166695e-09
7.7517374e-08
9.9400799e-09
6.9287524e-09
1.194895e-09
8.7370061e-09
1.5880051e-09
1.172111e-08
1.3584382e-08
3.5131591e-08
2.8576339e-08
1.9592816e-08
2.6357493e-08
1.1362864e-09
8.2244851e-09
1.731148e-08
1.0506764e-08
4.9563956e-08
5.6584099e-08
6.4897473e-08
6.0086083e-08
3.737417e-08
4.4281991e-08
4.8155891e-08
4.7287111e-08
4.553039e-08
3.4513328e-08
2.8032918e-08
4.4780169e-08
5.4053645e-08
3.7288037e-08
4.4253954e-08
4.6943257e-08
1.9227507e-08
2.5856955e-08
1.6990584e-08
1.0857336e-08
4.2166016e-08
6.271582e-08
5.9426285e-08
4.0480957e-08
4.5172792e-08
3.89963e-08
3.4855721e-08
3.2950471e-08
3.0774596e-08
2.8373989e-08
1.9450856e-08
2.186266e-08
2.616775e-08
2.4118434e-08
1.718405e-08
1.5031729e-08
1.276637e-08
1.0346729e-08
4.6307042e-08
5.1424435e-08
4.5442435e-08
5.3728608e-08
5.2232013e-08
6.7311691e-08
6.3757297e-08
4.7367887e-08
6.3551815e-08
5.4816929e-08
3.6968412e-08
3.9705177e-08
4.2042183e-08
4.3760492e-08
4.4771907e-08
4.7328938e-08
3.3802381e-08
4.7186017e-08
4.2333891e-08
1.94776e-08
1.5174971e-08
1.3929983e-08
2.7091999e-08
4.6827144e-08
4.1107201e-08
3.8656917e-08
4.1125795e-08
3.1728948e-08
3.7954821e-08
2.1852836e-08
2.9352714e-08
3.9459126e-09
1.3994451e-09
3.8236272e-09
1.254738e-09
1.6642519e-09
5.1668962e-09
1.9583126e-08
2.4907827e-08
2.16609e-08
5.0565963e-08
5.3517921e-08
4.7726542e-08
5.0165305e-08
4.7218909e-08
3.1724876e-08
2.8070981e-08
3.140876e-08
1.455341e-09
4.5044632e-09
1.2217843e-09
3.6655784e-09
1.6619863e-09
4.7709426e-09
8.4300593e-09
1.1786591e-08
1.3647618e-09
3.5142586e-09
5.8957967e-09
8.0854097e-09
3.2324855e-08
2.9766635e-08
3.0193219e-08
2.450495e-08
4.6457042e-08
3.7553826e-08
4.9368742e-08
5.1384699e-08
4.1021759e-08
3.2459002e-08
4.5214175e-08
3.7473582e-08
4.464572e-08
4.6683472e-08
2.1450924e-08
1.6776135e-08
2.3661537e-08
2.2660842e-08
1.4777284e-08
1.4903248e-08
1.0810537e-08
1.2744891e-08
6.1171039e-08
6.2740322e-08
6.3298109e-08
6.7766837e-08
1.9129486e-08
1.51324e-08
1.833425e-08
4.4249419e-08
4.0782787e-08
4.3928757e-08
3.4739588e-08
3.7638171e-08
3.4486726e-08
5.8977519e-09
7.1568929e-09
7.7160631e-09
7.2261158e-09
5.8422841e-09
8.2918178e-09
1.0633378e-08
6.253552e-09
8.005274e-09
1.1901298e-08
5.1190809e-08
5.2129103e-08
2.34407e-08
1.666704e-08
2.0395485e-08
1.481848e-08
1.4624173e-08
1.746463e-08
4.7096204e-08
3.6593075e-08
4.3963669e-08
3.4207865e-08
3.8052072e-08
4.099611e-08
2.632618e-08
2.4426488e-08
2.924215e-08
3.5114754e-08
2.68068e-08
3.2172801e-08
2.9239801e-06
2.1418908e-06
3.2795102e-06
3.405723e-06
5.4687219e-06
3.3003179e-06
1.8693475e-06
3.2319337e-06
2.5148251e-06
2.3080299e-06
0.002231031
0.0012986255
0.0028964003
0.00075416248
1.5323118e-06
1.2306636e-06
1.3669071e-06
8.4045983e-07
2.3004614e-07
1.7299187e-06
3.7212177e-07
2.7478531e-07
2.7397044e-07
2.1130377e-07
2.6586371e-07
4.4220898e-07
3.5219103e-07
4.1145827e-07
3.1643817e-07
2.916871e-07
3.3583457e-07
1.8937778e-06
1.5070861e-06
2.5603858e-08
4.9552453e-07
9.1468503e-07
1.1716271e-06
8.8497603e-07
1.0186336e-06
6.8285625e-07
8.0997551e-07
2.4673163e-08
4.1711063e-08
4.7204045e-07
4.3329858e-07
2.2782222e-07
2.1374923e-07
1.5413931e-07
1.6948882e-07
1.0680021e-07
9.0843929e-08
2.6994193e-07
2.9282865e-07
2.8370418e-07
2.6558003e-07
2.7986538e-07
4.4836605e-07
2.1694052e-07
1.4692772e-07
1.0201785e-07
2.7086733e-07
4.3508864e-08
3.7954543e-07
2.0360671e-07
1.6151896e-07
8.816687e-08
1.4632602e-08
4.0571223e-07
1.674677e-08
4.2984082e-07
4.5351845e-07
4.4222579e-07
2.0217285e-07
1.1726951e-07
8.8641119e-09
6.3062275e-07
1.0446268e-07
1.0440626e-06
1.609605e-07
1.8000733e-07
2.1935758e-07
2.1438597e-07
1.7656228e-07
9.3977301e-09
8.7207087e-09
5.1498123e-08
1.0621066e-07
3.5568535e-07
5.1634769e-07
2.2642281e-07
2.6408227e-07
1.225666e-07
1.6340201e-07
1.0856443e-07
6.5792085e-08
7.4789337e-09
7.5959292e-08
5.4023782e-08
1.3494185e-07
3.2972298e-07
5.3321902e-07
2.8020489e-07
3.1341586e-07
2.8124135e-07
5.0857302e-07
4.1989444e-07
3.2570815e-07
3.8901383e-07
1.6364725e-07
5.0320975e-07
4.1617973e-07
2.2547776e-07
1.6883889e-07
1.8586422e-07
1.5676173e-07
1.2910272e-07
1.7205418e-07
1.1435817e-07
7.6756779e-08
6.9261391e-08
2.3809329e-07
3.1142346e-07
2.744379e-07
2.4435183e-07
3.1277874e-07
3.7315397e-07
3.6258577e-07
2.5903562e-07
2.0207386e-07
1.8946162e-07
5.6873048e-07
6.8247185e-07
2.3830464e-07
2.5047581e-07
1.3638619e-07
1.5000416e-07
9.440482e-08
8.0126101e-08
2.8502868e-07
3.0513158e-07
1.6921712e-07
2.982999e-07
2.5695897e-07
4.6292166e-07
4.9390633e-07
3.2995259e-07
4.5626118e-07
3.8255652e-07
2.9937877e-07
3.4217224e-07
3.099292e-07
3.6316579e-07
3.5767524e-07
1.0162558e-07
1.2224888e-08
6.4725706e-08
3.649584e-07
5.0561071e-07
6.1497537e-08
1.140724e-08
4.9518949e-07
5.8432696e-08
2.3385607e-08
3.7351172e-08
5.4810748e-07
1.019876e-07
3.8150015e-07
7.7161822e-07
1.3617267e-06
4.4392359e-08
1.4196163e-08
4.2793925e-08
3.097046e-07
4.7118557e-08
4.0550409e-07
4.7550428e-07
8.4257526e-09
2.660242e-08
1.7530186e-07
2.5127513e-07
1.1687016e-07
2.7861542e-08
1.000508e-08
2.9406948e-08
2.7019997e-07
7.6896116e-08
3.813081e-07
4.9598153e-07
8.0475535e-09
2.3053663e-08
3.8649431e-08
5.8467546e-08
1.909897e-07
3.4912545e-07
4.8532366e-07
4.9156594e-07
4.5645103e-07
4.6222572e-07
2.1258388e-07
2.4170757e-07
1.9938018e-07
1.9931868e-07
1.4364996e-07
1.3854419e-07
1.5797416e-07
1.8456043e-07
9.9447591e-08
1.2273112e-07
8.4405063e-08
7.4799351e-08
2.5050231e-07
2.5573037e-07
3.0544927e-07
3.5797685e-07
2.6265288e-07
2.9545415e-07
3.1676402e-07
2.9895181e-07
3.3609296e-07
3.5243292e-07
1.3173041e-08
3.6073248e-08
3.9297049e-08
1.0674299e-08
3.3446598e-08
3.1257382e-08
3.6743513e-07
3.9072019e-07
3.1641626e-07
4.6727749e-07
4.9778258e-07
2.3042704e-07
1.9276051e-07
1.3106329e-07
1.3209765e-07
1.1703821e-07
8.9614437e-08
2.4760474e-07
2.7247536e-07
4.45968e-08
6.0687223e-08
3.3337094e-07
3.204261e-07
1.8117672e-07
1.8987173e-07
1.4358544e-07
1.7584911e-07
7.5279267e-08
7.9188147e-08
7.45581e-08
1.1692275e-07
7.1584644e-08
8.5418608e-08
5.506721e-08
6.2997304e-08
4.4630623e-08
5.3220105e-08
4.4845272e-08
5.4534474e-08
4.9979285e-08
4.6682921e-08
3.3770243e-07
2.6023318e-07
2.8895714e-07
1.2961439e-07
1.0561959e-07
6.5443671e-08
2.4016459e-07
2.1693322e-07
1.2416051e-07
0.00048681822
0.00086372288
0.00059614438
0.0073934335
0.0069091067
0.0023370482
0.015662985
5.7992139e-05
8.9120663e-05
0.00011248669
8.1708516e-05
8.3899242e-05
7.0533967e-05
0.00012109818
0.00010845533
0.00014115875
8.3084001e-05
7.8767925e-05
0.00012280316
0.00016776724
0.00011892826
4.7620345e-06
5.5197686e-06
6.589035e-06
3.9816735e-06
3.5201039e-06
1.4549288e-06
4.3366434e-06
1.1793817e-06
5.7815754e-06
9.807468e-06
7.9846305e-06
7.1107445e-06
2.892475e-06
8.0075e-07
2.408825e-06
9.666498e-07
2.9219898e-06
4.7057141e-06
4.0569399e-06
3.3890191e-06
1.4995697e-06
3.6008541e-07
1.5632732e-06
4.4244893e-07
2.4642361e-06
3.0716696e-06
3.3972529e-06
2.2535389e-06
1.7486438e-06
6.6987049e-07
2.0378347e-06
5.601545e-07
1.4283321e-05
2.53488e-05
1.9580531e-05
1.8558047e-05
6.8327243e-06
1.8161521e-06
5.4081334e-06
2.2966546e-06
1.1167202e-05
1.219852e-05
8.8540788e-06
1.5354381e-05
8.7569887e-06
3.8427485e-06
1.1406063e-05
2.9465632e-06
3.3117232e-05
3.3375105e-05
4.478735e-05
2.4542444e-05
2.0494038e-05
5.1052145e-06
1.5129907e-05
6.9286096e-06
2.8607666e-05
2.9404188e-05
1.4653253e-05
1.547112e-05
1.3951319e-05