/*--------------------------------*- C++ -*----------------------------------*\
  =========                 |
  \\      /  F ield         | OpenFOAM: The Open Source CFD Toolbox
   \\    /   O peration     | Website:  https://openfoam.org
    \\  /    A nd           | Version:  8
     \\/     M anipulation  |
\*---------------------------------------------------------------------------*/
/*   Windows 32 and 64 bit porting by blueCAPE: http://www.bluecape.com.pt   *\
|  Based on Windows porting (2.0.x v4) by Symscape: http://www.symscape.com   |
\*---------------------------------------------------------------------------*/
FoamFile
{
    version     2.0;
    format      ascii;
    class       polyBoundaryMesh;
    location    "constant/air/polyMesh";
    object      boundary;
}
// * * * * * * * * * * * * * * * * * * * * * * * * * * * * * * * * * * * * * //

13
(
    left
    {
        type            patch;
        nFaces          0;
        startFace       6896;
    }
    right
    {
        type            patch;
        nFaces          0;
        startFace       6896;
    }
    back
    {
        type            patch;
        nFaces          0;
        startFace       6896;
    }
    front
    {
        type            patch;
        nFaces          0;
        startFace       6896;
    }
    bottom
    {
        type            wall;
        inGroups        List<word> 1(wall);
        nFaces          147;
        startFace       6896;
    }
    top
    {
        type            patch;
        nFaces          6;
        startFace       7043;
    }
    tower
    {
        type            mappedWall;
        inGroups        List<word> 
2
(
wall
mappedPatch
)
;
        nFaces          178;
        startFace       7049;
        sampleMode      nearestPatchFace;
        sampleRegion    tower;
        samplePatch     buildings_to_air;
    }
    procBoundary10to11
    {
        type            processor;
        inGroups        List<word> 1(processor);
        nFaces          180;
        startFace       7227;
        matchTolerance  0.0001;
        myProcNo        10;
        neighbProcNo    11;
    }
    procBoundary10to12
    {
        type            processor;
        inGroups        List<word> 1(processor);
        nFaces          118;
        startFace       7407;
        matchTolerance  0.0001;
        myProcNo        10;
        neighbProcNo    12;
    }
    procBoundary10to15
    {
        type            processor;
        inGroups        List<word> 1(processor);
        nFaces          32;
        startFace       7525;
        matchTolerance  0.0001;
        myProcNo        10;
        neighbProcNo    15;
    }
    procBoundary10to16
    {
        type            processor;
        inGroups        List<word> 1(processor);
        nFaces          9;
        startFace       7557;
        matchTolerance  0.0001;
        myProcNo        10;
        neighbProcNo    16;
    }
    procBoundary10to17
    {
        type            processor;
        inGroups        List<word> 1(processor);
        nFaces          112;
        startFace       7566;
        matchTolerance  0.0001;
        myProcNo        10;
        neighbProcNo    17;
    }
    procBoundary10to18
    {
        type            processor;
        inGroups        List<word> 1(processor);
        nFaces          9;
        startFace       7678;
        matchTolerance  0.0001;
        myProcNo        10;
        neighbProcNo    18;
    }
)

// ************************************************************************* //
